*HEADING
*Part, name=Piece
*USER ELEMENT, NODES=56, TYPE=U1, COORDINATES=3, variables=2184, I PROPERTIES=8, PROPERTIES=28
1,2,3
*USER ELEMENT, NODES=46, TYPE=U2, COORDINATES=3, variables=1794, I PROPERTIES=8, PROPERTIES=28
1,2,3
*USER ELEMENT, NODES=74, TYPE=U3, COORDINATES=3, variables=2886, I PROPERTIES=8, PROPERTIES=28
1,2,3
*USER ELEMENT, NODES=70, TYPE=U4, COORDINATES=3, variables=2730, I PROPERTIES=8, PROPERTIES=28
1,2,3
*USER ELEMENT, NODES=64, TYPE=U5, COORDINATES=3, variables=2496, I PROPERTIES=8, PROPERTIES=28
1,2,3
*USER ELEMENT, NODES=72, TYPE=U6, COORDINATES=3, variables=2808, I PROPERTIES=8, PROPERTIES=28
1,2,3
*USER ELEMENT, NODES=66, TYPE=U7, COORDINATES=3, variables=2574, I PROPERTIES=8, PROPERTIES=28
1,2,3
*USER ELEMENT, NODES=40, TYPE=U8, COORDINATES=3, variables=1560, I PROPERTIES=8, PROPERTIES=28
1,2,3
*USER ELEMENT, NODES=32, TYPE=U9, COORDINATES=3, variables=1248, I PROPERTIES=8, PROPERTIES=28
1,2,3
*USER ELEMENT, NODES=52, TYPE=U10, COORDINATES=3, variables=2028, I PROPERTIES=8, PROPERTIES=28
1,2,3
*USER ELEMENT, NODES=54, TYPE=U11, COORDINATES=3, variables=2106, I PROPERTIES=8, PROPERTIES=28
1,2,3
*USER ELEMENT, NODES=48, TYPE=U12, COORDINATES=3, variables=1872, I PROPERTIES=8, PROPERTIES=28
1,2,3
*USER ELEMENT, NODES=51, TYPE=U13, COORDINATES=3, variables=1989, I PROPERTIES=8, PROPERTIES=28
1,2,3
*USER ELEMENT, NODES=60, TYPE=U14, COORDINATES=3, variables=2340, I PROPERTIES=8, PROPERTIES=28
1,2,3
*USER ELEMENT, NODES=57, TYPE=U15, COORDINATES=3, variables=2223, I PROPERTIES=8, PROPERTIES=28
1,2,3
*USER ELEMENT, NODES=49, TYPE=U16, COORDINATES=3, variables=1911, I PROPERTIES=8, PROPERTIES=28
1,2,3
*USER ELEMENT, NODES=50, TYPE=U17, COORDINATES=3, variables=1950, I PROPERTIES=8, PROPERTIES=28
1,2,3
*USER ELEMENT, NODES=42, TYPE=U18, COORDINATES=3, variables=1638, I PROPERTIES=8, PROPERTIES=28
1,2,3
*USER ELEMENT, NODES=44, TYPE=U19, COORDINATES=3, variables=1716, I PROPERTIES=8, PROPERTIES=28
1,2,3
*USER ELEMENT, NODES=41, TYPE=U20, COORDINATES=3, variables=1599, I PROPERTIES=8, PROPERTIES=28
1,2,3
*USER ELEMENT, NODES=43, TYPE=U21, COORDINATES=3, variables=1677, I PROPERTIES=8, PROPERTIES=28
1,2,3
*USER ELEMENT, NODES=61, TYPE=U22, COORDINATES=3, variables=2379, I PROPERTIES=8, PROPERTIES=28
1,2,3
*Node,nset=AllNode
1,	1.33886,	2.99496,	1.06238
2,	1.20675,	2.99052,	5.2489
3,	1.33528,	0.382876,	1.07133
4,	1.23004,	0.384063,	5.26519
5,	2.36536,	3.30614,	2.31311
6,	2.27253,	3.30947,	4.02048
7,	2.32972,	0.0849431,	2.34808
8,	2.31347,	0.0859522,	4.06854
9,	5.89858,	0.243609,	4.92012
10,	5.88337,	3.10919,	4.94714
11,	4.18104,	0.0440258,	4.02696
12,	4.07321,	3.34157,	4.14612
13,	4.0693,	3.34374,	2.29085
14,	4.07971,	0.0407048,	2.28996
15,	5.97251,	3.21785,	1.60476
16,	5.99408,	0.259289,	1.51417
17,	4.36239,	3.33853,	2.88631
18,	4.3627,	3.33204,	3.54721
19,	4.36851,	0.0410817,	2.8332
20,	4.3926,	0.0486564,	3.44375
** ... 2741 like lines cut
*Element, type=U1,elset=AllEls
1, 1, 298, 302, 301, 303, 304, 311, 310, 824, 829, 830, 833, 1756, 
2005, 2006, 2002, 2008, 2007, 2258, 2260, 2263, 61, 299, 305, 306, 2003, 
1816, 2009, 65, 300, 307, 308, 64, 309, 2004, 1820, 1819, 828, 832, 
2262, 66, 350, 353, 315, 312, 316, 1821, 2028, 2010, 67, 313, 1822, 
74, 314, 73, 352
2, 4, 317, 321, 320, 322, 323, 330, 329, 672, 670, 676, 673, 1759, 
2014, 2015, 2011, 2016, 2018, 2166, 2164, 2167, 62, 318, 324, 325, 659, 
664, 2012, 1817, 2159, 83, 319, 326, 327, 82, 328, 2013, 1835, 1834, 
2017, 70, 331, 335, 334, 679, 677, 1824, 2019, 2169, 69, 332, 668, 
89, 333, 88, 1839
3, 5, 336, 340, 339, 341, 342, 349, 348, 690, 695, 696, 699, 1760, 
2023, 2024, 2020, 2026, 2025, 2176, 2178, 2181, 94, 337, 343, 344, 2021, 
1844, 2027, 97, 338, 345, 346, 78, 347, 2022, 1847, 1830, 694, 698, 
2180, 66, 312, 316, 315, 350, 353, 1821, 2010, 2028, 98, 351, 1848, 
103, 352, 73, 314
4, 13, 354, 358, 357, 359, 360, 367, 366, 795, 797, 798, 800, 1768, 
2032, 2033, 2029, 2035, 2034, 2241, 2243, 2244, 108, 355, 361, 362, 2030, 
1856, 2036, 111, 356, 363, 364, 95, 365, 2031, 1859, 1845, 796, 799, 
2242, 99, 368, 372, 371, 801, 803, 2037, 1849, 2245, 112, 369, 1860, 
117, 370, 100, 802
** ... 1020 like lines cut
*Element, type=U2,elset=AllEls
209, 25, 411, 415, 414, 416, 417, 424, 423, 1780, 2059, 2060, 2056, 2062, 
2061, 2065, 145, 412, 418, 419, 2057, 1883, 2063, 149, 413, 420, 421, 
148, 422, 2058, 1887, 1886, 2064, 150, 425, 429, 428, 2066, 1888, 2067, 
151, 426, 1889, 158, 427, 157, 1892
210, 1063, 1064, 1071, 1070, 37, 1072, 1076, 1075, 150, 425, 429, 428, 1888, 
2066, 2377, 2376, 2380, 2067, 2381, 1792, 2384, 151, 426, 1065, 1066, 159, 
1073, 1889, 2378, 1893, 158, 427, 1067, 1068, 157, 1069, 163, 1074, 162, 
2379, 1892, 1896, 2385, 2382, 1897, 2383
211, 1161, 28, 1162, 1164, 1165, 1166, 1167, 1170, 178, 450, 456, 457, 1907, 
2075, 2426, 2423, 2427, 2081, 2424, 1783, 2428, 2429, 179, 1163, 1168, 1169, 
2425, 1908, 2430, 181, 458, 1910, 182, 1171, 1174, 464, 183, 1172, 2431, 
1911, 1912, 2432, 184, 1173, 1913, 187
212, 1201, 1202, 1203, 1206, 1207, 40, 1208, 1210, 182, 1171, 1174, 464, 1192, 
1193, 183, 1172, 188, 1198, 1911, 2431, 2447, 2442, 1912, 2448, 2451, 1915, 
1795, 2432, 2449, 2452, 184, 1173, 1204, 1205, 189, 1209, 1913, 2450, 1916, 
187, 1194, 191, 2454, 2444, 2453, 1918
213, 737, 10, 742, 741, 2206, 1765, 2211, 2210, 728, 80, 740, 732, 731, 
746, 738, 743, 2201, 2209, 1832, 2204, 2207, 1019, 1021, 1022, 1024, 1430, 
1431, 1432, 1433, 2356, 2357, 2561, 2562, 2563, 750, 747, 85, 748, 990, 
992, 1837, 2212, 2342, 735, 84, 1836
** ... 44 like lines cut
*Element, type=U3,elset=AllEls
225, 26, 430, 434, 433, 435, 436, 443, 442, 1036, 1038, 1039, 1041, 1518, 
1519, 1521, 1522, 1523, 1526, 1726, 1728, 1781, 2071, 2072, 2068, 2363, 2365, 
2073, 2366, 2605, 2608, 2606, 2609, 2731, 164, 431, 437, 438, 1527, 1528, 
1530, 1730, 2069, 1898, 2610, 167, 432, 439, 440, 146, 441, 2070, 1901, 
1884, 1037, 1040, 2364, 152, 444, 448, 447, 1042, 1044, 1725, 1727, 1890, 
2367, 2730, 168, 445, 1729, 173, 446, 153, 1043
226, 1104, 27, 452, 1106, 1107, 454, 461, 1109, 164, 431, 437, 438, 1527, 
1528, 1530, 1569, 1570, 1573, 1574, 1575, 1577, 1730, 1751, 1753, 1898, 2069, 
2403, 2401, 2077, 1782, 2610, 2633, 2634, 449, 453, 455, 462, 2078, 2074, 
2080, 2079, 2635, 2637, 2744, 451, 165, 459, 460, 1105, 1108, 1899, 2076, 
2402, 167, 439, 1901, 168, 1110, 1112, 445, 169, 466, 1729, 1750, 1752, 
463, 467, 2082, 1902, 2743, 465, 170, 1111, 173
227, 1078, 1128, 1133, 1079, 38, 620, 1136, 1084, 152, 444, 448, 447, 1042, 
1044, 1077, 1082, 1083, 1086, 1731, 1725, 1732, 1727, 625, 626, 2367, 1890, 
2387, 2386, 1793, 2388, 2732, 2730, 2144, 168, 445, 1129, 1130, 174, 1134, 
1733, 1729, 627, 173, 446, 1131, 1132, 153, 1080, 177, 1135, 160, 1043, 
1081, 1085, 624, 623, 633, 632, 2142, 2143, 2139, 2146, 2389, 2391, 2411, 
621, 628, 2140, 1903, 2409, 1906, 2410, 1894, 2390
228, 1137, 1138, 1139, 1142, 1143, 39, 1144, 1146, 168, 1110, 1112, 445, 1129, 
1130, 169, 466, 174, 1134, 1733, 1729, 1754, 1750, 627, 1661, 1755, 1752, 
** ... 28 like lines cut
*Element, type=U4,elset=AllEls
233, 27, 449, 453, 452, 454, 455, 462, 461, 1104, 1106, 1107, 1109, 1569, 
1570, 1573, 1574, 1575, 1577, 1751, 1753, 1782, 2077, 2078, 2074, 2080, 2079, 
2401, 2403, 2633, 2634, 2635, 2637, 2744, 178, 450, 456, 457, 2075, 1907, 
2081, 181, 451, 458, 459, 165, 460, 2076, 1910, 1899, 1105, 1108, 2402, 
169, 463, 467, 466, 1110, 1112, 1750, 1752, 2082, 1902, 2743, 182, 464, 
1911, 187, 465, 170, 1111
234, 38, 620, 624, 623, 625, 626, 633, 632, 1077, 1078, 1079, 1082, 1083, 
1084, 1086, 1128, 1133, 1136, 1731, 1732, 1793, 2142, 2143, 2139, 2144, 2146, 
2386, 2387, 2388, 2389, 2391, 2411, 2732, 174, 621, 627, 628, 1129, 1130, 
1134, 1733, 2140, 1903, 2409, 281, 622, 629, 630, 280, 631, 2141, 1988, 
1987, 2145, 282, 641, 634, 649, 638, 637, 1989, 2150, 2147, 283, 635, 
654, 287, 636, 286, 1992
235, 1036, 26, 433, 1038, 1039, 435, 442, 1041, 145, 412, 418, 419, 1883, 
2057, 2365, 2363, 2366, 2063, 2071, 1781, 2073, 430, 434, 436, 443, 1518, 
1519, 1521, 1522, 1523, 1526, 1726, 1728, 2072, 2068, 2605, 2608, 2606, 2609, 
2731, 432, 146, 440, 441, 1037, 1040, 1884, 2070, 2364, 149, 420, 1887, 
151, 1042, 1044, 426, 152, 447, 2367, 1889, 1890, 444, 448, 1725, 1727, 
2730, 446, 153, 1043, 158
236, 1077, 1078, 1079, 1082, 1083, 38, 1084, 1086, 151, 1042, 1044, 426, 1065, 
1066, 152, 447, 159, 1073, 1889, 2367, 2386, 2378, 1890, 2387, 2388, 1893, 
** ... 28 like lines cut
*Element, type=U5,elset=AllEls
241, 30, 487, 491, 490, 492, 493, 500, 499, 1048, 1045, 1046, 1052, 1049, 
1050, 1125, 1126, 1226, 1228, 1785, 2095, 2096, 2092, 2371, 2369, 2368, 2408, 
2464, 166, 488, 494, 495, 1115, 1119, 2093, 1900, 2406, 208, 489, 496, 
497, 192, 498, 2094, 1931, 1919, 1225, 1227, 2463, 154, 501, 505, 504, 
1056, 1053, 1054, 1127, 1230, 172, 502, 1123, 212, 503, 196, 1229
242, 31, 506, 510, 509, 511, 512, 519, 518, 1116, 1113, 1114, 1120, 1117, 
1118, 1188, 1189, 1284, 1286, 1786, 2100, 2101, 2097, 2407, 2405, 2404, 2440, 
2492, 180, 507, 513, 514, 1177, 1182, 2098, 1909, 2435, 218, 508, 515, 
516, 206, 517, 2099, 1937, 1929, 1283, 1285, 2491, 171, 520, 524, 523, 
1124, 1121, 1122, 1190, 1288, 186, 521, 1186, 222, 522, 209, 1287
243, 34, 544, 548, 547, 549, 550, 557, 556, 1234, 1231, 1232, 1238, 1235, 
1236, 1301, 1302, 1387, 1389, 1789, 2114, 2115, 2111, 2468, 2466, 2465, 2497, 
2541, 207, 545, 551, 552, 1291, 1295, 2112, 1930, 2495, 236, 546, 553, 
554, 226, 555, 2113, 1951, 1943, 1386, 1388, 2540, 197, 558, 562, 561, 
1242, 1239, 1240, 1303, 1391, 211, 559, 1299, 238, 560, 229, 1390
244, 35, 563, 567, 566, 568, 569, 576, 575, 1292, 1289, 1290, 1296, 1293, 
1294, 1355, 1356, 1435, 1437, 1790, 2119, 2120, 2116, 2496, 2494, 2493, 2523, 
2565, 217, 564, 570, 571, 1344, 1349, 2117, 1936, 2518, 242, 565, 572, 
573, 235, 574, 2118, 1955, 1950, 1434, 1436, 2564, 210, 577, 581, 580, 
1300, 1297, 1298, 1357, 1439, 221, 578, 1353, 244, 579, 237, 1438
** ... 4900 like lines cut
*Element, type=U6,elset=AllEls
1225, 164, 1104, 1106, 431, 437, 1107, 1109, 438, 430, 434, 436, 443, 1522, 
1523, 1526, 1527, 1528, 1530, 1569, 1570, 1573, 1728, 1730, 1751, 1898, 2069, 
2403, 2401, 2068, 2072, 2609, 2610, 2633, 27, 452, 454, 461, 1574, 1575, 
1577, 1753, 2077, 1782, 2634, 165, 1105, 460, 1108, 167, 439, 2402, 1899, 
1901, 432, 440, 2070, 444, 168, 445, 448, 1110, 1112, 1727, 1729, 1750, 
169, 466, 1752, 170, 1111, 173, 446
1226, 152, 444, 448, 447, 1078, 1128, 1133, 1079, 435, 436, 443, 442, 1039, 
1041, 1042, 1044, 1077, 1082, 1725, 1726, 1727, 1728, 1731, 1732, 2366, 2073, 
1890, 2367, 2387, 2386, 2730, 2731, 2732, 437, 438, 168, 445, 1129, 1130, 
1729, 1730, 1733, 439, 440, 173, 446, 441, 153, 1131, 1132, 1080, 1040, 
1043, 1081, 1083, 38, 1084, 1086, 620, 1136, 625, 626, 1793, 2388, 2144, 
174, 1134, 627, 177, 1135, 160, 1085
1227, 169, 463, 467, 466, 1138, 1191, 1196, 1139, 454, 455, 462, 461, 1107, 
1109, 1110, 1112, 1137, 1142, 1750, 1751, 1752, 1753, 1754, 1755, 1902, 2082, 
2441, 2412, 2079, 2080, 2743, 2744, 2745, 456, 457, 182, 464, 1192, 1193, 
2081, 1911, 2442, 458, 459, 187, 465, 460, 170, 1194, 1195, 1140, 1108, 
1111, 1141, 1143, 39, 1144, 1146, 1197, 1200, 1661, 1662, 2443, 1794, 2692, 
188, 1198, 1915, 191, 1199, 175, 1145
1228, 174, 1143, 1660, 621, 627, 1661, 1666, 628, 620, 624, 626, 633, 1128, 
1129, 1130, 1133, 1134, 1136, 1137, 1142, 1146, 1732, 1733, 1754, 1903, 2140, 
** ... 196 like lines cut
*Element, type=U7,elset=AllEls
1261, 835, 887, 892, 836, 15, 893, 896, 841, 99, 368, 372, 371, 801, 
803, 834, 839, 840, 843, 1849, 2037, 2297, 2265, 2245, 2264, 1770, 2266, 
2299, 112, 369, 888, 889, 118, 894, 1860, 2298, 1864, 117, 370, 890, 
891, 100, 837, 121, 895, 105, 802, 838, 842, 1512, 1510, 1515, 1513, 
2267, 2269, 2600, 2601, 2603, 1511, 1514, 2602, 1492, 1490, 1491, 1853, 2268, 
2590
1262, 844, 918, 917, 845, 850, 920, 919, 16, 100, 370, 886, 814, 837, 
891, 802, 817, 838, 849, 101, 815, 846, 842, 105, 853, 851, 885, 
895, 117, 879, 890, 911, 116, 910, 121, 915, 120, 1863, 2296, 2307, 
2305, 1850, 2270, 2308, 1865, 1771, 2253, 2271, 2274, 1486, 1484, 1489, 1487, 
1492, 1490, 2268, 1853, 2273, 2276, 2586, 2589, 2590, 1485, 1488, 1491, 2588, 
2587
1263, 1019, 742, 743, 1021, 1022, 10, 738, 1024, 139, 990, 992, 407, 1010, 
1011, 85, 748, 142, 1016, 1879, 2342, 2356, 2354, 1837, 2211, 2357, 1881, 
1765, 740, 737, 746, 741, 750, 747, 2206, 2210, 2212, 739, 81, 745, 
744, 749, 86, 991, 1020, 1023, 141, 1012, 144, 1431, 1425, 1433, 1428, 
1430, 1432, 2563, 2559, 2562, 2209, 2207, 2561, 1405, 1406, 2208, 1833, 2548, 
1399
1264, 1028, 754, 755, 1025, 1031, 751, 9, 1029, 141, 991, 1002, 1001, 1012, 
1020, 1027, 86, 758, 744, 87, 1000, 140, 1026, 144, 1023, 1030, 81, 
** ... 4 like lines cut
*Element, type=U8,elset=AllEls
1265, 1, 301, 302, 298, 1756, 2005, 2006, 2002, 303, 304, 311, 310, 824, 
829, 830, 833, 2008, 2007, 2258, 2260, 2263, 300, 64, 308, 309, 828, 
832, 1819, 2004, 2262, 61, 299, 305, 306, 65, 307, 2003, 1816, 1820, 
2009
1266, 1, 298, 304, 303, 1756, 2002, 2008, 2007, 302, 301, 311, 310, 824, 
829, 830, 833, 2005, 2006, 2258, 2260, 2263, 61, 299, 305, 306, 2003, 
1816, 2009, 66, 312, 316, 315, 67, 313, 2010, 1821, 1822, 350, 353, 
2028
1267, 4, 320, 321, 317, 1759, 2014, 2015, 2011, 322, 323, 330, 329, 672, 
670, 676, 673, 2016, 2018, 2166, 2164, 2167, 319, 82, 327, 328, 1834, 
2013, 2017, 62, 318, 324, 325, 83, 326, 2012, 1817, 1835, 659, 664, 
2159
1268, 4, 322, 329, 320, 1759, 2016, 2018, 2014, 317, 321, 323, 330, 672, 
670, 676, 673, 2015, 2011, 2166, 2164, 2167, 70, 331, 335, 334, 679, 
677, 1824, 2019, 2169, 319, 82, 327, 328, 333, 88, 2017, 1834, 1839, 
2013
1269, 5, 339, 340, 336, 1760, 2023, 2024, 2020, 341, 342, 349, 348, 690, 
695, 696, 699, 2026, 2025, 2176, 2178, 2181, 338, 78, 346, 347, 694, 
698, 1830, 2022, 2180, 94, 337, 343, 344, 97, 345, 2021, 1844, 1847, 
2027
** ... 1340 like lines cut
*Element, type=U9,elset=AllEls
1605, 25, 414, 415, 411, 1780, 2059, 2060, 2056, 416, 417, 424, 423, 2062, 
2061, 2065, 413, 148, 421, 422, 1886, 2058, 2064, 145, 412, 418, 419, 
149, 420, 2057, 1883, 1887, 2063
1606, 25, 411, 417, 416, 1780, 2056, 2062, 2061, 415, 414, 424, 423, 2059, 
2060, 2065, 145, 412, 418, 419, 2057, 1883, 2063, 150, 425, 429, 428, 
151, 426, 2066, 1888, 1889, 2067
1607, 25, 416, 423, 414, 1780, 2061, 2065, 2059, 411, 415, 417, 424, 2060, 
2056, 2062, 150, 425, 429, 428, 2066, 1888, 2067, 413, 148, 421, 422, 
427, 157, 2064, 1886, 1892, 2058
1608, 1063, 1064, 1072, 37, 2376, 2377, 2381, 1792, 150, 425, 429, 428, 1071, 
1070, 1076, 1075, 1888, 2066, 2380, 2067, 2384, 151, 426, 1065, 1066, 159, 
1073, 1889, 2378, 1893, 2385, 2382
1609, 1063, 37, 1075, 1070, 2376, 1792, 2384, 2380, 150, 425, 429, 428, 1064, 
1071, 1072, 1076, 1888, 2066, 2377, 2067, 2381, 2385, 1068, 1069, 1074, 162, 
1896, 2379, 2383, 427, 157, 1892
1610, 37, 1072, 1076, 1075, 1792, 2381, 2385, 2384, 1063, 1064, 1071, 1070, 2376, 
2377, 2380, 1065, 1066, 159, 1073, 2378, 1893, 2382, 1067, 1068, 163, 1074, 
1069, 162, 1897, 2383, 1896, 2379
1611, 1161, 1164, 1162, 28, 2423, 2426, 2424, 1783, 178, 450, 456, 1165, 1170, 
457, 1166, 1167, 1907, 2075, 2427, 2081, 2428, 179, 1163, 1168, 1169, 181, 
** ... 16 like lines cut
*Element, type=U10,elset=AllEls
1617, 27, 452, 453, 449, 1782, 2077, 2078, 2074, 454, 455, 462, 461, 1104, 
1106, 1107, 1109, 1569, 1570, 1573, 1574, 1575, 1577, 1751, 1753, 2080, 2079, 
2401, 2403, 2633, 2634, 2635, 2637, 2744, 451, 165, 459, 460, 1105, 1108, 
1899, 2076, 2402, 178, 450, 456, 457, 181, 458, 2075, 1907, 1910, 2081

1618, 38, 625, 632, 623, 1793, 2144, 2146, 2142, 620, 624, 626, 633, 1077, 
1078, 1079, 1082, 1083, 1084, 1086, 1128, 1133, 1136, 1731, 1732, 2143, 2139, 
2386, 2387, 2388, 2389, 2391, 2411, 2732, 282, 641, 634, 649, 638, 637, 
1989, 2150, 2147, 622, 280, 630, 631, 636, 286, 2145, 1987, 1992, 2141

1619, 1036, 1038, 433, 26, 2363, 2365, 2071, 1781, 145, 412, 418, 1039, 1041, 
419, 435, 442, 1883, 2057, 2366, 2063, 2073, 146, 1037, 441, 1040, 149, 
420, 2364, 1884, 1887, 430, 434, 436, 443, 432, 440, 2072, 2068, 2070, 
1518, 1519, 1521, 1522, 1523, 1526, 1726, 1728, 2605, 2608, 2606, 2609, 2731

1620, 1083, 38, 1084, 1086, 2388, 1793, 2389, 2391, 1065, 1077, 1082, 1066, 159, 
1073, 1078, 1079, 2378, 2386, 1893, 2382, 2387, 620, 624, 623, 625, 626, 
633, 632, 1128, 1133, 1136, 1731, 1732, 2142, 2143, 2139, 2144, 2146, 2411, 
2732, 1080, 1081, 160, 1085, 1132, 1135, 1894, 2390, 2410, 1067, 163, 1897

1621, 39, 1197, 1200, 1144, 1794, 2443, 2446, 2414, 1137, 1138, 1139, 1142, 1143, 
1146, 1191, 1196, 1658, 1660, 1661, 1662, 1663, 1666, 1754, 1755, 2413, 2416, 
2412, 2441, 2691, 2689, 2693, 2692, 2745, 1192, 1193, 188, 1198, 2442, 1915, 
2444, 1194, 1195, 191, 1199, 1140, 175, 1918, 2445, 1904, 1141, 1145, 2415

1622, 1518, 1521, 1519, 26, 2605, 2608, 2606, 1781, 247, 583, 589, 1522, 1526, 
590, 430, 1523, 1959, 2122, 2609, 2128, 2068, 248, 1520, 1524, 1525, 251, 
591, 2607, 1960, 1963, 1717, 1726, 1720, 1728, 435, 436, 2726, 2731, 2073, 
434, 433, 443, 442, 1036, 1038, 1039, 1041, 2071, 2072, 2363, 2365, 2366

1623, 1574, 27, 1575, 1577, 2634, 1782, 2635, 2637, 1557, 1569, 1573, 1558, 260, 
1565, 1104, 1570, 2627, 2633, 1969, 2629, 2401, 449, 453, 452, 454, 455, 
462, 461, 1106, 1107, 1109, 1751, 1753, 2077, 2078, 2074, 2080, 2079, 2403, 
2744, 1571, 1572, 261, 1576, 1745, 1748, 1970, 2636, 2741, 1559, 264, 1973

1624, 39, 1658, 1663, 1662, 1794, 2689, 2693, 2692, 1137, 1138, 1139, 1142, 1143, 
1144, 1146, 1191, 1196, 1197, 1200, 1660, 1661, 1666, 1754, 1755, 2413, 2414, 
2416, 2412, 2441, 2443, 2446, 2691, 2745, 279, 1659, 1664, 1665, 2690, 1986, 
2694, 1667, 284, 1668, 1670, 285, 1669, 2695, 1990, 1991, 1738, 1742, 2737

1625, 2750, 2748, 2747, 2746, 303, 304, 312, 66, 2007, 2008, 2010, 1821, 1, 
298, 302, 301, 311, 310, 350, 353, 315, 824, 829, 316, 830, 833, 
1756, 2002, 2028, 2258, 2260, 61, 299, 305, 306, 67, 313, 1816, 2009, 
1822, 341, 690, 695, 348, 691, 692, 2176, 2025, 2177, 342, 349, 2026

1626, 2750, 2748, 2747, 2746, 303, 304, 312, 66, 2007, 2008, 2010, 1821, 1, 
298, 302, 301, 311, 310, 350, 353, 315, 824, 829, 316, 830, 833, 
1756, 2002, 2028, 2258, 2260, 61, 299, 305, 306, 67, 313, 1816, 2009, 
1822, 341, 690, 695, 348, 691, 692, 2176, 2025, 2177, 342, 349, 2026

1627, 2757, 2748, 2753, 2750, 304, 305, 67, 312, 2008, 2009, 1822, 2010, 1, 
298, 302, 301, 303, 311, 310, 61, 299, 306, 66, 316, 315, 313, 
1756, 2002, 2007, 1816, 1821, 657, 660, 661, 665, 666, 669, 2157, 2161, 
2163, 691, 700, 705, 692, 690, 695, 2182, 2177, 2176, 341, 348, 2025

1628, 2757, 2748, 2753, 2750, 304, 305, 67, 312, 2008, 2009, 1822, 2010, 1, 
298, 302, 301, 303, 311, 310, 61, 299, 306, 66, 316, 315, 313, 
1756, 2002, 2007, 1816, 1821, 657, 660, 661, 665, 666, 669, 2157, 2161, 
2163, 691, 700, 705, 692, 690, 695, 2182, 2177, 2176, 341, 348, 2025

1629, 2758, 2753, 2757, 2748, 305, 661, 666, 67, 2009, 2161, 2163, 1822, 61, 
657, 660, 299, 665, 306, 298, 302, 304, 311, 312, 313, 316, 669, 
1816, 2157, 2002, 2008, 2010, 2, 658, 662, 663, 68, 667, 1757, 2162, 
1823, 691, 700, 705, 692, 701, 702, 2182, 2177, 2183, 690, 695, 2176

1630, 2758, 2753, 2757, 2748, 305, 661, 666, 67, 2009, 2161, 2163, 1822, 61, 
657, 660, 299, 665, 306, 298, 302, 304, 311, 312, 313, 316, 669, 
1816, 2157, 2002, 2008, 2010, 2, 658, 662, 663, 68, 667, 1757, 2162, 
1823, 691, 700, 705, 692, 701, 702, 2182, 2177, 2183, 690, 695, 2176

1631, 2758, 2753, 2755, 2752, 661, 662, 68, 666, 2161, 2162, 1823, 2163, 61, 
657, 660, 299, 305, 665, 306, 2, 658, 663, 67, 669, 313, 667, 
1816, 2157, 2009, 1757, 1822, 727, 729, 730, 733, 734, 736, 2200, 2203, 
2205, 700, 701, 702, 705, 771, 774, 2183, 2182, 2225, 691, 692, 2177

1632, 2758, 2753, 2755, 2752, 661, 662, 68, 666, 2161, 2162, 1823, 2163, 61, 
657, 660, 299, 305, 665, 306, 2, 658, 663, 67, 669, 313, 667, 
1816, 2157, 2009, 1757, 1822, 727, 729, 730, 733, 734, 736, 2200, 2203, 
2205, 700, 701, 702, 705, 771, 774, 2183, 2182, 2225, 691, 692, 2177

*Element, type=U11,elset=AllEls
1633, 27, 449, 455, 454, 1782, 2074, 2080, 2079, 453, 452, 462, 461, 1104, 
1106, 1107, 1109, 1569, 1570, 1573, 1574, 1575, 1577, 1751, 1753, 2077, 2078, 
2401, 2403, 2633, 2634, 2635, 2637, 2744, 178, 450, 456, 457, 2075, 1907, 
2081, 169, 463, 467, 466, 182, 464, 2082, 1902, 1911, 1110, 1112, 1750, 
1752, 2743
1634, 38, 623, 624, 620, 1793, 2142, 2143, 2139, 625, 626, 633, 632, 1077, 
1078, 1079, 1082, 1083, 1084, 1086, 1128, 1133, 1136, 1731, 1732, 2144, 2146, 
2386, 2387, 2388, 2389, 2391, 2411, 2732, 622, 280, 630, 631, 1987, 2141, 
2145, 174, 621, 627, 628, 281, 629, 2140, 1903, 1988, 1129, 1130, 1134, 
1733, 2409
1635, 1036, 26, 435, 1039, 2363, 1781, 2073, 2366, 145, 1038, 412, 418, 1041, 
419, 433, 442, 1883, 2057, 2365, 2063, 2071, 430, 434, 436, 443, 1518, 
1519, 1521, 1522, 1523, 1526, 1726, 1728, 2072, 2068, 2605, 2608, 2606, 2609, 
2731, 152, 444, 448, 447, 1042, 1044, 1725, 1727, 1890, 2367, 2730, 151, 
426, 1889
1636, 1077, 1078, 38, 1083, 2386, 2387, 1793, 2388, 151, 1042, 1044, 426, 1065, 
1082, 1066, 152, 447, 1079, 159, 1086, 1073, 1084, 1889, 2367, 2378, 1890, 
1893, 444, 448, 1128, 1133, 620, 1136, 1731, 1725, 1732, 1727, 625, 626, 
2732, 2730, 2144, 624, 623, 633, 632, 2142, 2143, 2139, 2146, 2389, 2391, 
2411, 2382
** ... 80 like lines cut
*Element, type=U12,elset=AllEls
1653, 30, 490, 491, 487, 1785, 2095, 2096, 2092, 492, 493, 500, 499, 1048, 
1045, 1046, 1052, 1049, 1050, 1125, 1126, 1226, 1228, 2371, 2369, 2368, 2408, 
2464, 489, 192, 497, 498, 1225, 1227, 1919, 2094, 2463, 166, 488, 494, 
495, 208, 496, 2093, 1900, 1931, 1115, 1119, 2406
1654, 31, 509, 510, 506, 1786, 2100, 2101, 2097, 511, 512, 519, 518, 1116, 
1113, 1114, 1120, 1117, 1118, 1188, 1189, 1284, 1286, 2407, 2405, 2404, 2440, 
2492, 508, 206, 516, 517, 1283, 1285, 1929, 2099, 2491, 180, 507, 513, 
514, 218, 515, 2098, 1909, 1937, 1177, 1182, 2435
1655, 34, 547, 548, 544, 1789, 2114, 2115, 2111, 549, 550, 557, 556, 1234, 
1231, 1232, 1238, 1235, 1236, 1301, 1302, 1387, 1389, 2468, 2466, 2465, 2497, 
2541, 546, 226, 554, 555, 1386, 1388, 1943, 2113, 2540, 207, 545, 551, 
552, 236, 553, 2112, 1930, 1951, 1291, 1295, 2495
1656, 35, 566, 567, 563, 1790, 2119, 2120, 2116, 568, 569, 576, 575, 1292, 
1289, 1290, 1296, 1293, 1294, 1355, 1356, 1435, 1437, 2496, 2494, 2493, 2523, 
2565, 565, 235, 573, 574, 1434, 1436, 1950, 2118, 2564, 217, 564, 570, 
571, 242, 572, 2117, 1936, 1955, 1344, 1349, 2518
1657, 65, 671, 672, 659, 1820, 2165, 2166, 2159, 307, 664, 676, 675, 302, 
299, 300, 311, 306, 308, 660, 665, 682, 686, 2006, 2004, 2003, 2160, 
2172, 670, 63, 673, 674, 680, 683, 1818, 2164, 2170, 62, 317, 324, 
323, 4, 322, 2011, 1817, 1759, 658, 663, 2158
** ... 2284 like lines cut
*Element, type=U13,elset=AllEls
2229, 2750, 2747, 2751, 66, 312, 690, 341, 1821, 2010, 2176, 2025, 316, 315, 
695, 348, 350, 353, 303, 824, 829, 310, 304, 311, 342, 349, 2028, 
2258, 2007, 2008, 2026, 305, 306, 67, 313, 691, 692, 2009, 1822, 2177, 
5, 696, 699, 339, 75, 697, 2178, 1760, 1827, 336, 340, 2020
2230, 2750, 2747, 2751, 66, 312, 690, 341, 1821, 2010, 2176, 2025, 316, 315, 
695, 348, 350, 353, 303, 824, 829, 310, 304, 311, 342, 349, 2028, 
2258, 2007, 2008, 2026, 305, 306, 67, 313, 691, 692, 2009, 1822, 2177, 
5, 696, 699, 339, 75, 697, 2178, 1760, 1827, 336, 340, 2020
2231, 2750, 2747, 2751, 66, 312, 690, 341, 1821, 2010, 2176, 2025, 316, 315, 
695, 348, 350, 353, 303, 824, 829, 310, 304, 311, 342, 349, 2028, 
2258, 2007, 2008, 2026, 305, 306, 67, 313, 691, 692, 2009, 1822, 2177, 
5, 696, 699, 339, 75, 697, 2178, 1760, 1827, 336, 340, 2020
2232, 2750, 2747, 2751, 66, 312, 690, 341, 1821, 2010, 2176, 2025, 316, 315, 
695, 348, 350, 353, 303, 824, 829, 310, 304, 311, 342, 349, 2028, 
2258, 2007, 2008, 2026, 305, 306, 67, 313, 691, 692, 2009, 1822, 2177, 
5, 696, 699, 339, 75, 697, 2178, 1760, 1827, 336, 340, 2020
2233, 2757, 2748, 2750, 304, 305, 67, 312, 2008, 2009, 1822, 2010, 1, 298, 
302, 301, 303, 311, 310, 61, 299, 306, 66, 316, 315, 313, 1756, 
2002, 2007, 1816, 1821, 657, 660, 661, 665, 666, 669, 2157, 2161, 2163, 
691, 700, 705, 692, 690, 695, 2182, 2177, 2176, 341, 348, 2025
** ... 28 like lines cut
*Element, type=U14,elset=AllEls
2241, 2757, 2753, 2752, 2754, 2748, 2746, 2758, 2755, 2759, 2756, 2760, 2749, 67, 
666, 700, 691, 1822, 2163, 2182, 2177, 669, 313, 705, 692, 304, 305, 
306, 311, 312, 316, 661, 665, 690, 695, 2008, 2009, 2010, 2161, 2176, 
662, 663, 68, 667, 701, 702, 2162, 1823, 2183, 75, 706, 709, 697, 
6, 707, 2184, 1827, 1761, 696, 699, 2178
2242, 2757, 2753, 2752, 2754, 2756, 2760, 2748, 2746, 2749, 2758, 2755, 2759, 67, 
666, 700, 691, 1822, 2163, 2182, 2177, 669, 313, 705, 692, 304, 305, 
306, 311, 312, 316, 661, 665, 690, 695, 2008, 2009, 2010, 2161, 2176, 
662, 663, 68, 667, 701, 702, 2162, 1823, 2183, 75, 706, 709, 697, 
6, 707, 2184, 1827, 1761, 696, 699, 2178
2243, 2757, 2748, 2750, 2746, 2747, 2754, 2753, 2752, 2756, 2760, 2749, 2751, 312, 
67, 691, 690, 2010, 1822, 2177, 2176, 66, 316, 315, 341, 695, 348, 
303, 304, 311, 310, 305, 306, 313, 692, 1821, 2025, 2007, 2008, 2009, 
666, 669, 700, 705, 661, 665, 2163, 2182, 2161, 696, 75, 697, 699, 
706, 709, 1827, 2178, 2184, 5, 339, 1760
2244, 2750, 2748, 2746, 2747, 2757, 2754, 2760, 2749, 2751, 2753, 2752, 2756, 312, 
67, 691, 690, 2010, 1822, 2177, 2176, 66, 316, 315, 341, 695, 348, 
303, 304, 311, 310, 305, 306, 313, 692, 1821, 2025, 2007, 2008, 2009, 
666, 669, 700, 705, 661, 665, 2163, 2182, 2161, 696, 75, 697, 699, 
706, 709, 1827, 2178, 2184, 5, 339, 1760
*Element, type=U15,elset=AllEls
2245, 2757, 2753, 2752, 2754, 2758, 2755, 2759, 2756, 2760, 67, 666, 700, 691, 
1822, 2163, 2182, 2177, 669, 313, 705, 692, 304, 305, 306, 311, 312, 
316, 661, 665, 690, 695, 2008, 2009, 2010, 2161, 2176, 662, 663, 68, 
667, 701, 702, 2162, 1823, 2183, 75, 706, 709, 697, 6, 707, 2184, 
1827, 1761, 696, 699, 2178
2246, 2757, 2753, 2752, 2754, 2758, 2755, 2759, 2756, 2760, 67, 666, 700, 691, 
1822, 2163, 2182, 2177, 669, 313, 705, 692, 304, 305, 306, 311, 312, 
316, 661, 665, 690, 695, 2008, 2009, 2010, 2161, 2176, 662, 663, 68, 
667, 701, 702, 2162, 1823, 2183, 75, 706, 709, 697, 6, 707, 2184, 
1827, 1761, 696, 699, 2178
2247, 2753, 2758, 2755, 2752, 2757, 2754, 2759, 2756, 2760, 67, 666, 700, 691, 
1822, 2163, 2182, 2177, 669, 313, 705, 692, 304, 305, 306, 311, 312, 
316, 661, 665, 690, 695, 2008, 2009, 2010, 2161, 2176, 662, 663, 68, 
667, 701, 702, 2162, 1823, 2183, 75, 706, 709, 697, 6, 707, 2184, 
1827, 1761, 696, 699, 2178
2248, 2752, 2755, 2759, 2756, 2757, 2753, 2754, 2758, 2760, 67, 666, 700, 691, 
1822, 2163, 2182, 2177, 669, 313, 705, 692, 304, 305, 306, 311, 312, 
316, 661, 665, 690, 695, 2008, 2009, 2010, 2161, 2176, 662, 663, 68, 
667, 701, 702, 2162, 1823, 2183, 75, 706, 709, 697, 6, 707, 2184, 
1827, 1761, 696, 699, 2178
** ... 20 like lines cut
*Element, type=U16,elset=AllEls
2253, 2750, 303, 304, 312, 66, 2007, 2008, 2010, 1821, 1, 298, 302, 301, 
311, 310, 350, 353, 315, 824, 829, 316, 830, 833, 1756, 2002, 2028, 
2258, 2260, 61, 299, 305, 306, 67, 313, 1816, 2009, 1822, 341, 690, 
695, 348, 691, 692, 2176, 2025, 2177, 342, 349, 2026
2254, 2750, 303, 304, 312, 66, 2007, 2008, 2010, 1821, 1, 298, 302, 301, 
311, 310, 350, 353, 315, 824, 829, 316, 830, 833, 1756, 2002, 2028, 
2258, 2260, 61, 299, 305, 306, 67, 313, 1816, 2009, 1822, 341, 690, 
695, 348, 691, 692, 2176, 2025, 2177, 342, 349, 2026
2255, 2758, 661, 662, 68, 666, 2161, 2162, 1823, 2163, 61, 657, 660, 299, 
305, 665, 306, 2, 658, 663, 67, 669, 313, 667, 1816, 2157, 2009, 
1757, 1822, 727, 729, 730, 733, 734, 736, 2200, 2203, 2205, 700, 701, 
702, 705, 771, 774, 2183, 2182, 2225, 691, 692, 2177
2256, 2758, 661, 662, 68, 666, 2161, 2162, 1823, 2163, 61, 657, 660, 299, 
305, 665, 306, 2, 658, 663, 67, 669, 313, 667, 1816, 2157, 2009, 
1757, 1822, 727, 729, 730, 733, 734, 736, 2200, 2203, 2205, 700, 701, 
702, 705, 771, 774, 2183, 2182, 2225, 691, 692, 2177
*Element, type=U17,elset=AllEls
2257, 2750, 2748, 303, 304, 312, 66, 2007, 2008, 2010, 1821, 1, 298, 302, 
301, 311, 310, 350, 353, 315, 824, 829, 316, 830, 833, 1756, 2002, 
2028, 2258, 2260, 61, 299, 305, 306, 67, 313, 1816, 2009, 1822, 341, 
690, 695, 348, 691, 692, 2176, 2025, 2177, 342, 349, 2026
2258, 2750, 2747, 303, 304, 312, 66, 2007, 2008, 2010, 1821, 1, 298, 302, 
301, 311, 310, 350, 353, 315, 824, 829, 316, 830, 833, 1756, 2002, 
2028, 2258, 2260, 61, 299, 305, 306, 67, 313, 1816, 2009, 1822, 341, 
690, 695, 348, 691, 692, 2176, 2025, 2177, 342, 349, 2026
2259, 2750, 2748, 303, 304, 312, 66, 2007, 2008, 2010, 1821, 1, 298, 302, 
301, 311, 310, 350, 353, 315, 824, 829, 316, 830, 833, 1756, 2002, 
2028, 2258, 2260, 61, 299, 305, 306, 67, 313, 1816, 2009, 1822, 341, 
690, 695, 348, 691, 692, 2176, 2025, 2177, 342, 349, 2026
2260, 2750, 2747, 303, 304, 312, 66, 2007, 2008, 2010, 1821, 1, 298, 302, 
301, 311, 310, 350, 353, 315, 824, 829, 316, 830, 833, 1756, 2002, 
2028, 2258, 2260, 61, 299, 305, 306, 67, 313, 1816, 2009, 1822, 341, 
690, 695, 348, 691, 692, 2176, 2025, 2177, 342, 349, 2026
2261, 2758, 2753, 661, 662, 68, 666, 2161, 2162, 1823, 2163, 61, 657, 660, 
299, 305, 665, 306, 2, 658, 663, 67, 669, 313, 667, 1816, 2157, 
2009, 1757, 1822, 727, 729, 730, 733, 734, 736, 2200, 2203, 2205, 700, 
701, 702, 705, 771, 774, 2183, 2182, 2225, 691, 692, 2177
** ... 12 like lines cut
*Element, type=U18,elset=AllEls
2265, 2747, 2751, 341, 690, 696, 5, 2025, 2176, 2178, 1760, 336, 340, 339, 
342, 349, 348, 66, 312, 316, 315, 695, 350, 353, 699, 2020, 2026, 
1821, 2010, 2028, 67, 313, 691, 692, 75, 697, 1822, 2177, 1827, 2181, 
2023, 2179, 2024
2266, 2751, 2749, 341, 690, 696, 5, 2025, 2176, 2178, 1760, 336, 340, 339, 
342, 349, 348, 66, 312, 316, 315, 695, 350, 353, 699, 2020, 2026, 
1821, 2010, 2028, 67, 313, 691, 692, 75, 697, 1822, 2177, 1827, 2181, 
2023, 2179, 2024
2267, 2747, 2751, 341, 690, 696, 5, 2025, 2176, 2178, 1760, 336, 340, 339, 
342, 349, 348, 66, 312, 316, 315, 695, 350, 353, 699, 2020, 2026, 
1821, 2010, 2028, 67, 313, 691, 692, 75, 697, 1822, 2177, 1827, 2181, 
2023, 2179, 2024
2268, 2751, 2749, 341, 690, 696, 5, 2025, 2176, 2178, 1760, 336, 340, 339, 
342, 349, 348, 66, 312, 316, 315, 695, 350, 353, 699, 2020, 2026, 
1821, 2010, 2028, 67, 313, 691, 692, 75, 697, 1822, 2177, 1827, 2181, 
2023, 2179, 2024
2269, 2755, 2759, 700, 701, 6, 706, 2182, 2183, 1761, 2184, 67, 666, 669, 
313, 691, 705, 692, 68, 667, 702, 75, 709, 697, 707, 1822, 2163, 
2177, 1823, 1827, 734, 736, 771, 774, 775, 777, 2205, 2225, 2227, 2185, 
2187, 2229, 2179
** ... 12 like lines cut
*Element, type=U19,elset=AllEls
2273, 2747, 2751, 2746, 2749, 341, 690, 696, 5, 2025, 2176, 2178, 1760, 336, 
340, 339, 342, 349, 348, 66, 312, 316, 315, 695, 350, 353, 699, 
2020, 2026, 1821, 2010, 2028, 67, 313, 691, 692, 75, 697, 1822, 2177, 
1827, 2181, 2023, 2179, 2024
2274, 2751, 2747, 2746, 2749, 341, 690, 696, 5, 2025, 2176, 2178, 1760, 336, 
340, 339, 342, 349, 348, 66, 312, 316, 315, 695, 350, 353, 699, 
2020, 2026, 1821, 2010, 2028, 67, 313, 691, 692, 75, 697, 1822, 2177, 
1827, 2181, 2023, 2179, 2024
2275, 2751, 2749, 2760, 2756, 690, 691, 75, 696, 2176, 2177, 1827, 2178, 66, 
312, 316, 315, 341, 695, 348, 67, 313, 692, 5, 699, 339, 697, 
1821, 2010, 2025, 1822, 1760, 666, 669, 700, 705, 706, 709, 2163, 2182, 
2184, 2179, 2181, 2187, 2023
2276, 2751, 2749, 2760, 2756, 690, 691, 75, 696, 2176, 2177, 1827, 2178, 66, 
312, 316, 315, 341, 695, 348, 67, 313, 692, 5, 699, 339, 697, 
1821, 2010, 2025, 1822, 1760, 666, 669, 700, 705, 706, 709, 2163, 2182, 
2184, 2179, 2181, 2187, 2023
2277, 2749, 2760, 2756, 2759, 691, 700, 706, 75, 2177, 2182, 2184, 1827, 67, 
666, 669, 313, 705, 692, 312, 316, 690, 695, 696, 697, 699, 709, 
1822, 2163, 2010, 2176, 2178, 68, 667, 701, 702, 6, 707, 1823, 2183, 
1761, 2187, 2179, 2185, 2181
** ... 12 like lines cut
*Element, type=U20,elset=AllEls
2281, 2751, 341, 690, 696, 5, 2025, 2176, 2178, 1760, 336, 340, 339, 342, 
349, 348, 66, 312, 316, 315, 695, 350, 353, 699, 2020, 2026, 1821, 
2010, 2028, 67, 313, 691, 692, 75, 697, 1822, 2177, 1827, 2181, 2023, 
2179, 2024
2282, 2751, 341, 690, 696, 5, 2025, 2176, 2178, 1760, 336, 340, 339, 342, 
349, 348, 66, 312, 316, 315, 695, 350, 353, 699, 2020, 2026, 1821, 
2010, 2028, 67, 313, 691, 692, 75, 697, 1822, 2177, 1827, 2181, 2023, 
2179, 2024
2283, 2759, 700, 701, 6, 706, 2182, 2183, 1761, 2184, 67, 666, 669, 313, 
691, 705, 692, 68, 667, 702, 75, 709, 697, 707, 1822, 2163, 2177, 
1823, 1827, 734, 736, 771, 774, 775, 777, 2205, 2225, 2227, 2185, 2187, 
2229, 2179
2284, 2759, 700, 701, 6, 706, 2182, 2183, 1761, 2184, 67, 666, 669, 313, 
691, 705, 692, 68, 667, 702, 75, 709, 697, 707, 1822, 2163, 2177, 
1823, 1827, 734, 736, 771, 774, 775, 777, 2205, 2225, 2227, 2185, 2187, 
2229, 2179
*Element, type=U21,elset=AllEls
2285, 2751, 2749, 2760, 690, 691, 75, 696, 2176, 2177, 1827, 2178, 66, 312, 
316, 315, 341, 695, 348, 67, 313, 692, 5, 699, 339, 697, 1821, 
2010, 2025, 1822, 1760, 666, 669, 700, 705, 706, 709, 2163, 2182, 2184, 
2179, 2181, 2187, 2023
2286, 2751, 2749, 2760, 690, 691, 75, 696, 2176, 2177, 1827, 2178, 66, 312, 
316, 315, 341, 695, 348, 67, 313, 692, 5, 699, 339, 697, 1821, 
2010, 2025, 1822, 1760, 666, 669, 700, 705, 706, 709, 2163, 2182, 2184, 
2179, 2181, 2187, 2023
2287, 2760, 2756, 2759, 691, 700, 706, 75, 2177, 2182, 2184, 1827, 67, 666, 
669, 313, 705, 692, 312, 316, 690, 695, 696, 697, 699, 709, 1822, 
2163, 2010, 2176, 2178, 68, 667, 701, 702, 6, 707, 1823, 2183, 1761, 
2187, 2179, 2185, 2181
2288, 2760, 2756, 2759, 691, 700, 706, 75, 2177, 2182, 2184, 1827, 67, 666, 
669, 313, 705, 692, 312, 316, 690, 695, 696, 697, 699, 709, 1822, 
2163, 2010, 2176, 2178, 68, 667, 701, 702, 6, 707, 1823, 2183, 1761, 
2187, 2179, 2185, 2181
*Element, type=U22,elset=AllEls
2289, 2761, 2757, 2753, 2752, 2754, 2748, 2746, 2758, 2755, 2759, 2756, 2760, 2749, 
67, 666, 700, 691, 1822, 2163, 2182, 2177, 669, 313, 705, 692, 304, 
305, 306, 311, 312, 316, 661, 665, 690, 695, 2008, 2009, 2010, 2161, 
2176, 662, 663, 68, 667, 701, 702, 2162, 1823, 2183, 75, 706, 709, 
697, 6, 707, 2184, 1827, 1761, 696, 699, 2178
2290, 2761, 2757, 2753, 2752, 2754, 2748, 2746, 2758, 2755, 2759, 2756, 2760, 2749, 
67, 666, 700, 691, 1822, 2163, 2182, 2177, 669, 313, 705, 692, 304, 
305, 306, 311, 312, 316, 661, 665, 690, 695, 2008, 2009, 2010, 2161, 
2176, 662, 663, 68, 667, 701, 702, 2162, 1823, 2183, 75, 706, 709, 
697, 6, 707, 2184, 1827, 1761, 696, 699, 2178
2291, 2761, 2757, 2753, 2752, 2754, 2748, 2746, 2758, 2755, 2759, 2756, 2760, 2749, 
67, 666, 700, 691, 1822, 2163, 2182, 2177, 669, 313, 705, 692, 304, 
305, 306, 311, 312, 316, 661, 665, 690, 695, 2008, 2009, 2010, 2161, 
2176, 662, 663, 68, 667, 701, 702, 2162, 1823, 2183, 75, 706, 709, 
697, 6, 707, 2184, 1827, 1761, 696, 699, 2178
2292, 2761, 2757, 2753, 2752, 2754, 2748, 2746, 2758, 2755, 2759, 2756, 2760, 2749, 
67, 666, 700, 691, 1822, 2163, 2182, 2177, 669, 313, 705, 692, 304, 
305, 306, 311, 312, 316, 661, 665, 690, 695, 2008, 2009, 2010, 2161, 
2176, 662, 663, 68, 667, 701, 702, 2162, 1823, 2183, 75, 706, 709, 
697, 6, 707, 2184, 1827, 1761, 696, 699, 2178
** ... 140 like lines cut
*ELSET,ELSET=EltPAtch1,generate
1, 2320, 1
*UEL PROPERTY, ELSET=EltPAtch1
**---E11---|---v12---|----c1---|---c2----|---c3----|----c4---|----c5---|---c6----|
    100000,     0.3,     1.0e6,    6.0e1,   80.000,   0.2500,   0.9000,    2.239,
**
**---Y0----|----ep0--|---Y1----|----ep1--|---Y2----|----ep2--|---Y3----|----ep3--|
  1157.000,    0.000,   0.0000,   0.0100,1207.5147,  0.00000,1224.9017,   0.0500,
**
**---Y4----|----ep4--|---Y5----|----ep5--|---Y6----|----ep6--|---Y7----|----ep7--|
1252.362103,   0.0800,1270.5188,   0.1000,  1426.00,   0.3000,   1538.0,   0.6000,
**-------------------------> PROPS(28) | JPROPS(1)
**---fGT---|---fxC---|---Gxc---|---fGc---|-CohType-|--FtgMnt-|-psudo3D-|-VirtualE|
     0.4,      0.5,     65.0,      0.5,        2,        1,        0,        4, 
**-----------------------------> JPROPS(8)
** --NPLY--|--FaiCrt-|CDDC_NE_D|---------|
       1,        3,        0,        0
*End Part
*Assembly, name=Assembly
*Instance, name=I1, part=Piece
*End Instance
*End Assembly
*MATERIAL,NAME=MAT
*Elastic
100000, 0.3
**
** Modification (3): Add an amplitude definition
**
*amplitude, name=AMP1
0.0, 1.0, 1.0e6, 1.0
**
** Modification (4): Add a *Temperature line
**
*Temperature, amplitude=AMP1
I1.AllNode, 0.0
*node file, frequency=1
U,RF,CF
*el file, frequency=1
SDV
*End Step
