*HEADING
*Part, name=Piece
*USER ELEMENT, NODES=36, TYPE=U1, COORDINATES=3, variables=1404, I PROPERTIES=8, PROPERTIES=28
1,2,3
*USER ELEMENT, NODES=48, TYPE=U2, COORDINATES=3, variables=1872, I PROPERTIES=8, PROPERTIES=28
1,2,3
*USER ELEMENT, NODES=64, TYPE=U3, COORDINATES=3, variables=2496, I PROPERTIES=8, PROPERTIES=28
1,2,3
*USER ELEMENT, NODES=60, TYPE=U4, COORDINATES=3, variables=2340, I PROPERTIES=8, PROPERTIES=28
1,2,3
*USER ELEMENT, NODES=80, TYPE=U5, COORDINATES=3, variables=3120, I PROPERTIES=8, PROPERTIES=28
1,2,3
*USER ELEMENT, NODES=51, TYPE=U6, COORDINATES=3, variables=1989, I PROPERTIES=8, PROPERTIES=28
1,2,3
*USER ELEMENT, NODES=68, TYPE=U7, COORDINATES=3, variables=2652, I PROPERTIES=8, PROPERTIES=28
1,2,3
*USER ELEMENT, NODES=27, TYPE=U8, COORDINATES=3, variables=1053, I PROPERTIES=8, PROPERTIES=28
1,2,3
*USER ELEMENT, NODES=54, TYPE=U9, COORDINATES=3, variables=2106, I PROPERTIES=8, PROPERTIES=28
1,2,3
*USER ELEMENT, NODES=72, TYPE=U10, COORDINATES=3, variables=2808, I PROPERTIES=8, PROPERTIES=28
1,2,3
*USER ELEMENT, NODES=56, TYPE=U11, COORDINATES=3, variables=2184, I PROPERTIES=8, PROPERTIES=28
1,2,3
*USER ELEMENT, NODES=52, TYPE=U12, COORDINATES=3, variables=2028, I PROPERTIES=8, PROPERTIES=28
1,2,3
*USER ELEMENT, NODES=42, TYPE=U13, COORDINATES=3, variables=1638, I PROPERTIES=8, PROPERTIES=28
1,2,3
*USER ELEMENT, NODES=45, TYPE=U14, COORDINATES=3, variables=1755, I PROPERTIES=8, PROPERTIES=28
1,2,3
*USER ELEMENT, NODES=46, TYPE=U15, COORDINATES=3, variables=1794, I PROPERTIES=8, PROPERTIES=28
1,2,3
*USER ELEMENT, NODES=57, TYPE=U16, COORDINATES=3, variables=2223, I PROPERTIES=8, PROPERTIES=28
1,2,3
*USER ELEMENT, NODES=50, TYPE=U17, COORDINATES=3, variables=1950, I PROPERTIES=8, PROPERTIES=28
1,2,3
*Node,nset=AllNode
1,	4.6480458725,	2.98956849,	1.3793233125
2,	4.77352548875,	3.0727293475,	1.3793286875
3,	4.92109132875,	3.10184094,	1.37933553125
4,	5.06865626625,	3.0727242925,	1.379342625
5,	5.194137635,	2.98956723875,	1.37934896875
6,	4.64806159109375,	2.98960633578125,	0.985022552890625
7,	4.7733812125,	3.0731189084375,	0.9850230970625
8,	4.92111385609375,	3.10226644296875,	0.98503017509375
9,	5.0688300634375,	3.073118898125,	0.9850332818125
10,	5.19414785359375,	2.989606283125,	0.985039325671875
11,	4.64807108375,	2.98955899375,	0.590722218625
12,	4.77355716375,	3.0727138275,	0.59072374925
13,	4.9211179775,	3.10182949375,	0.590725625
14,	5.06867793875,	3.07271376,	0.59072825075
15,	5.19416295375,	2.98955859375,	0.590731031375
16,	4.3257238296875,	3.263045595625,	1.37918688328125
17,	4.60640404859375,	3.3209410871875,	1.37930130421875
18,	4.92112767875,	3.3359346728125,	1.3793332315625
19,	5.23584910765625,	3.3209501590625,	1.37934842171875
20,	5.51653032765625,	3.26305780265625,	1.37936237734375
** ... 2572 like lines cut
*Element, type=U1,elset=AllEls
1, 1, 441, 1513, 444, 445, 1514, 2369, 1517, 2439, 1800, 1801, 829, 2, 
442, 446, 1515, 7, 443, 447, 1516, 6, 448, 1788, 815, 16, 449, 
1518, 452, 1794, 823, 17, 450, 22, 451, 21, 805
2, 441, 2, 442, 1513, 1514, 446, 1515, 2369, 1, 444, 445, 1517, 453, 
1519, 1520, 2370, 7, 443, 447, 1516, 455, 1522, 6, 448, 16, 449, 
1518, 452, 17, 450, 458, 1523, 22, 451, 460, 21
3, 2, 453, 1519, 442, 446, 1520, 2370, 1515, 441, 1513, 1514, 2369, 3, 
454, 456, 1521, 8, 455, 457, 1522, 7, 447, 443, 1516, 449, 17, 
450, 1518, 458, 1523, 18, 459, 23, 460, 22, 451
4, 453, 3, 454, 1519, 1520, 456, 1521, 2370, 2, 442, 446, 1515, 461, 
1524, 1525, 2371, 8, 455, 457, 1522, 463, 1527, 7, 447, 17, 458, 
1523, 450, 18, 459, 466, 1528, 23, 460, 468, 22
5, 3, 461, 1524, 454, 456, 1525, 2371, 1521, 453, 1519, 1520, 2370, 4, 
462, 464, 1526, 9, 463, 465, 1527, 8, 457, 455, 1522, 458, 18, 
459, 1523, 466, 1528, 19, 467, 24, 468, 23, 460
6, 461, 4, 462, 1524, 1525, 464, 1526, 2371, 3, 454, 456, 1521, 469, 
1529, 1530, 2372, 9, 463, 465, 1527, 471, 1532, 8, 457, 18, 466, 
1528, 459, 19, 467, 474, 1533, 24, 468, 476, 23
7, 4, 469, 1529, 462, 464, 1530, 2372, 1526, 461, 1524, 1525, 2371, 5, 
470, 472, 1531, 10, 471, 473, 1532, 9, 465, 463, 1527, 466, 19, 
** ... 754 like lines cut
*Element, type=U2,elset=AllEls
259, 1513, 442, 7, 443, 2369, 1515, 447, 1516, 1, 441, 444, 445, 1514, 
1517, 2, 446, 6, 448, 453, 1519, 1520, 2370, 455, 1522, 477, 1534, 
1535, 2373, 1539, 2374, 479, 1537, 16, 449, 1518, 452, 17, 450, 22, 
451, 21, 458, 1523, 460, 482, 1538, 1542, 484
260, 444, 1513, 443, 6, 1517, 2369, 1516, 448, 1, 441, 445, 1514, 1788, 
815, 2439, 1800, 1801, 829, 2, 442, 446, 1515, 7, 447, 1534, 479, 
2373, 1537, 477, 1535, 2435, 1787, 16, 449, 1518, 452, 451, 21, 805, 
1794, 823, 17, 450, 22, 1538, 484, 482, 1779
261, 445, 1514, 2369, 1517, 16, 449, 1518, 452, 1, 441, 1513, 444, 1794, 
2439, 823, 1801, 1800, 829, 2, 442, 446, 1515, 17, 450, 7, 443, 
447, 1516, 6, 448, 22, 451, 21, 805, 1788, 815, 500, 1551, 2377, 
1554, 2437, 1795, 501, 1552, 502, 1553, 503, 1780
262, 1514, 446, 1515, 2369, 449, 17, 450, 1518, 1, 441, 1513, 444, 445, 
1517, 2, 442, 16, 452, 453, 1519, 1520, 2370, 458, 1523, 7, 443, 
447, 1516, 22, 451, 455, 1522, 460, 6, 448, 21, 500, 1551, 2377, 
1554, 501, 1552, 1556, 2378, 502, 1553, 1558, 503
263, 1519, 454, 8, 455, 2370, 1521, 457, 1522, 2, 453, 442, 446, 1520, 
1515, 3, 456, 7, 447, 461, 1524, 1525, 2371, 463, 1527, 485, 1539, 
1540, 2374, 1543, 2375, 477, 1535, 17, 458, 1523, 450, 18, 459, 23, 
460, 22, 466, 1528, 468, 488, 1542, 1546, 482
** ... 2940 like lines cut
*Element, type=U3,elset=AllEls
999, 2369, 1515, 447, 1516, 1518, 450, 22, 451, 1, 441, 1513, 444, 445, 
1514, 1517, 2, 442, 446, 7, 443, 6, 448, 16, 449, 452, 17, 
21, 453, 1519, 1520, 2370, 455, 1522, 458, 1523, 460, 477, 1534, 1535, 
2373, 482, 1538, 1539, 2374, 1542, 479, 1537, 484, 500, 1551, 2377, 1554, 
501, 1552, 502, 1553, 503, 1556, 2378, 1558, 1568, 2381, 2382, 1570
1000, 1517, 2369, 1516, 448, 452, 1518, 451, 21, 1, 441, 1513, 444, 445, 
1514, 443, 6, 16, 449, 805, 1788, 1794, 2439, 815, 1800, 823, 1801, 
829, 2, 442, 446, 1515, 7, 447, 17, 450, 22, 1534, 479, 2373, 
1537, 477, 1535, 1538, 484, 482, 1779, 2435, 1787, 500, 1551, 2377, 1554, 
1553, 503, 1780, 2437, 1795, 501, 1552, 502, 2381, 1570, 1568, 2433
1001, 2370, 1521, 457, 1522, 1523, 459, 23, 460, 2, 453, 1519, 442, 446, 
1520, 1515, 3, 454, 456, 8, 455, 7, 447, 17, 458, 450, 18, 
22, 461, 1524, 1525, 2371, 463, 1527, 466, 1528, 468, 485, 1539, 1540, 
2374, 488, 1542, 1543, 2375, 1546, 477, 1535, 482, 501, 1556, 2378, 1552, 
508, 1557, 509, 1558, 502, 1560, 2379, 1562, 1572, 2382, 2383, 1568
1002, 1515, 2370, 1522, 447, 450, 1523, 460, 22, 441, 2, 442, 1513, 1514, 
446, 2369, 7, 443, 1516, 449, 17, 1518, 451, 453, 1519, 1520, 455, 
458, 3, 454, 456, 1521, 8, 457, 18, 459, 23, 1539, 477, 2374, 
1535, 485, 1540, 1542, 482, 488, 1534, 2373, 1538, 1551, 501, 1552, 2377, 
502, 1553, 1556, 2378, 1558, 508, 1557, 509, 2382, 1568, 1572, 2381
** ... 2720 like lines cut
*Element, type=U4,elset=AllEls
1547, 500, 1551, 2377, 1554, 31, 504, 1555, 507, 16, 449, 1518, 452, 1771, 
2437, 796, 1795, 1794, 823, 17, 450, 501, 1552, 32, 505, 22, 451, 
502, 1553, 21, 503, 37, 506, 36, 774, 1780, 805, 537, 1581, 2385, 
1584, 1772, 2431, 797, 1773, 841, 1810, 1811, 2442, 2096, 2514, 538, 1582, 
539, 1583, 540, 775, 1756, 833, 1806, 2098
1548, 1570, 2381, 1569, 524, 527, 1571, 526, 41, 21, 451, 1538, 484, 503, 
1553, 483, 26, 36, 506, 770, 1777, 1754, 2433, 802, 1779, 774, 1780, 
805, 22, 482, 502, 1568, 27, 523, 37, 525, 42, 540, 1583, 2389, 
1600, 1599, 561, 771, 1752, 1755, 2427, 775, 1756, 1805, 835, 2441, 1808, 
833, 1806, 2098, 2518, 2112, 539, 1598, 560
1549, 31, 504, 1555, 507, 537, 1581, 2385, 1584, 500, 1551, 2377, 1554, 1772, 
2431, 1771, 797, 1773, 796, 2437, 1795, 841, 1810, 1811, 2442, 2096, 2514, 
501, 1552, 32, 505, 538, 1582, 502, 1553, 37, 506, 503, 36, 539, 
1583, 540, 775, 1756, 774, 1780, 833, 1806, 2098, 46, 541, 1585, 544, 
1202, 2092, 47, 542, 52, 543, 51, 1207
1550, 527, 1571, 526, 41, 1600, 2389, 1599, 561, 503, 1553, 2381, 1570, 36, 
506, 1569, 524, 540, 1583, 771, 1752, 770, 1755, 2427, 1754, 775, 1756, 
774, 1777, 2433, 1780, 1805, 835, 2441, 1808, 833, 1806, 2098, 2518, 2112, 
502, 1568, 37, 525, 523, 42, 539, 1598, 560, 51, 543, 1601, 564, 
563, 56, 1207, 2107, 1224, 52, 562, 57
** ... 240 like lines cut
*Element, type=U5,elset=AllEls
1599, 1554, 2377, 1553, 503, 507, 1555, 506, 36, 16, 449, 1518, 452, 500, 
1551, 451, 21, 31, 504, 774, 1780, 1771, 2437, 805, 1794, 796, 1795, 
823, 17, 450, 501, 1552, 22, 502, 32, 505, 37, 1538, 484, 2381, 
1570, 482, 1568, 1571, 527, 525, 1754, 2433, 1779, 537, 1581, 2385, 1584, 
1583, 540, 775, 1756, 1772, 2431, 797, 1773, 1810, 833, 2442, 1806, 841, 
1811, 2096, 2514, 2098, 538, 1582, 539, 2389, 1600, 1598, 1755, 2427, 1805, 
2441, 2518
1600, 503, 1553, 2381, 1570, 36, 506, 1571, 527, 452, 1518, 451, 21, 1554, 
2377, 507, 1555, 1538, 484, 1754, 2433, 774, 1780, 1779, 805, 1771, 2437, 
1794, 450, 22, 1552, 502, 505, 37, 482, 1568, 525, 27, 483, 523, 
1569, 26, 524, 42, 526, 41, 770, 1777, 802, 1584, 2385, 1583, 540, 
2389, 1600, 1755, 2427, 775, 1756, 1772, 2431, 833, 1805, 1806, 2441, 1810, 
2442, 2514, 2098, 2518, 1582, 539, 1598, 560, 1599, 561, 771, 1752, 835, 
1808, 2112
1601, 507, 1555, 506, 36, 1584, 2385, 1583, 540, 500, 1551, 2377, 1554, 31, 
504, 1553, 503, 537, 1581, 775, 1756, 774, 1772, 2431, 1771, 797, 1773, 
796, 1780, 2437, 1795, 1810, 833, 2442, 1806, 841, 1811, 2096, 2514, 2098, 
501, 1552, 32, 505, 502, 37, 538, 1582, 539, 2381, 1570, 1571, 527, 
1568, 525, 2389, 1600, 1598, 1755, 2427, 1754, 2433, 1805, 2441, 2518, 46, 
541, 1585, 544, 543, 51, 1202, 2092, 1207, 47, 542, 52, 1601, 564, 
** ... 64 like lines cut
*Element, type=U6,elset=AllEls
1611, 1564, 518, 1565, 2380, 520, 35, 521, 1567, 19, 474, 1533, 467, 513, 
1561, 20, 475, 34, 516, 1656, 635, 2404, 1657, 1658, 636, 25, 476, 
519, 1566, 40, 522, 631, 1653, 633, 24, 514, 39, 550, 1594, 2388, 
1591, 555, 1595, 2060, 1168, 2504, 2061, 556, 1596, 2062, 1169, 551
1612, 2384, 1578, 534, 1579, 1580, 535, 45, 536, 24, 476, 1550, 493, 514, 
1566, 1575, 25, 498, 519, 30, 499, 29, 531, 39, 522, 532, 40, 
44, 1652, 631, 2403, 1653, 632, 1654, 1655, 633, 634, 551, 1596, 2392, 
1605, 556, 1608, 571, 1609, 568, 2062, 1169, 2512, 2089, 2090, 1201
1613, 520, 35, 521, 1567, 1594, 555, 1595, 2388, 513, 1564, 2380, 1561, 34, 
516, 518, 1565, 550, 1591, 1656, 635, 2404, 1657, 2060, 1168, 2504, 2061, 
519, 1566, 40, 522, 556, 1596, 631, 1653, 2062, 1169, 514, 39, 551, 
49, 557, 1597, 553, 50, 558, 1164, 2057, 55, 559, 1166, 54
1614, 1580, 535, 45, 536, 2392, 1608, 571, 1609, 514, 1566, 2384, 1575, 39, 
522, 532, 519, 1578, 40, 534, 1579, 531, 44, 551, 1596, 1605, 556, 
568, 1652, 631, 2403, 1653, 632, 1654, 2062, 1169, 2512, 2089, 2090, 1201, 
54, 559, 1610, 569, 55, 572, 60, 573, 59, 1166, 2086, 1199
1615, 2140, 1263, 352, 1264, 2526, 2141, 1265, 2142, 342, 1243, 1255, 1237, 2126, 
2136, 343, 1244, 351, 1258, 2268, 1407, 2297, 2570, 1440, 2298, 1420, 2307, 
2280, 2573, 1452, 2309, 1284, 2156, 2157, 2530, 1276, 2152, 345, 1246, 2143, 
1260, 346, 1266, 355, 1267, 354, 1402, 2293, 1435, 1287, 2159, 1281
** ... 12 like lines cut
*Element, type=U7,elset=AllEls
1619, 2380, 1565, 519, 1566, 1567, 521, 40, 522, 19, 474, 1533, 467, 513, 
1564, 1561, 20, 475, 518, 25, 476, 24, 514, 34, 520, 516, 35, 
39, 1656, 635, 2404, 1657, 631, 1653, 1658, 636, 633, 498, 1550, 1578, 
2384, 535, 1580, 1652, 2403, 1655, 493, 1575, 532, 550, 1594, 2388, 1591, 
555, 1595, 556, 1596, 551, 2060, 1168, 2504, 2061, 2062, 1169, 1608, 2392, 
2512, 2089, 1605
1620, 1566, 519, 1578, 2384, 522, 40, 535, 1580, 1533, 475, 25, 476, 2380, 
1565, 467, 24, 1561, 514, 1567, 521, 516, 39, 1550, 493, 1575, 498, 
532, 1652, 631, 2403, 1653, 1655, 633, 1656, 2404, 1658, 30, 499, 534, 
1579, 45, 536, 632, 1654, 634, 29, 531, 44, 2388, 1595, 556, 1596, 
1591, 551, 2392, 1605, 1608, 2504, 2061, 2062, 1169, 2512, 2089, 571, 1609, 
2090, 1201, 568
1621, 1567, 521, 40, 522, 2388, 1595, 556, 1596, 513, 1564, 2380, 1561, 34, 
520, 516, 518, 1565, 35, 519, 1566, 514, 39, 550, 1594, 1591, 555, 
551, 1656, 635, 2404, 1657, 631, 1653, 2060, 1168, 2504, 2061, 2062, 1169, 
1578, 2384, 535, 1580, 1608, 2392, 1652, 2403, 2512, 2089, 1575, 532, 1605, 
49, 557, 1597, 553, 50, 558, 55, 559, 54, 1164, 2057, 1166, 572, 
1610, 2086, 569
1622, 522, 40, 535, 1580, 1596, 556, 1608, 2392, 2380, 1565, 519, 1566, 1567, 
521, 1561, 514, 516, 39, 2384, 1575, 532, 1578, 2388, 1595, 1591, 551, 
** ... 4 like lines cut
*Element, type=U8,elset=AllEls
1623, 76, 611, 1641, 614, 615, 1642, 2401, 1645, 77, 612, 616, 1643, 80, 
613, 617, 1644, 79, 618, 82, 619, 1646, 622, 83, 620, 86, 621, 
85
1624, 623, 78, 624, 1647, 1648, 626, 1649, 2402, 77, 612, 616, 1643, 81, 
625, 627, 1650, 80, 617, 83, 628, 1651, 620, 84, 629, 87, 630, 
86
1625, 637, 1659, 2405, 1662, 88, 641, 1663, 644, 82, 619, 1646, 622, 83, 
620, 638, 1660, 89, 642, 86, 621, 639, 1661, 85, 640, 92, 643, 
91
1626, 1664, 645, 1665, 2406, 647, 90, 648, 1667, 83, 628, 1651, 620, 638, 
1660, 84, 629, 89, 642, 87, 630, 646, 1666, 93, 649, 86, 639, 
92
1627, 1698, 694, 114, 695, 2414, 1699, 696, 1700, 98, 667, 686, 659, 1682, 
1694, 99, 669, 113, 689, 104, 672, 1701, 691, 105, 697, 117, 698, 
116
1628, 2416, 1706, 704, 1707, 1708, 705, 120, 706, 104, 672, 1701, 691, 675, 
1691, 1702, 105, 697, 682, 117, 698, 116, 699, 110, 685, 701, 111, 
119
1629, 735, 1727, 734, 133, 1730, 2421, 1729, 737, 123, 709, 714, 1712, 124, 
733, 713, 1728, 134, 736, 127, 717, 1731, 740, 739, 135, 128, 738, 
** ... 28 like lines cut
*Element, type=U9,elset=AllEls
1639, 94, 653, 1673, 656, 657, 1674, 2409, 1677, 719, 1715, 1716, 2418, 938, 
1885, 2461, 1888, 1889, 944, 2465, 1903, 2211, 2545, 95, 654, 658, 1675, 
1904, 961, 98, 655, 659, 1676, 97, 660, 720, 1717, 100, 661, 1678, 
664, 721, 1718, 939, 1886, 942, 1901, 2214, 101, 662, 959, 104, 663, 
103, 722
1640, 673, 1684, 2411, 1687, 106, 677, 1688, 680, 100, 661, 1678, 664, 721, 
1718, 1724, 2420, 731, 1726, 939, 1890, 2462, 1886, 1893, 942, 945, 1891, 
947, 2466, 1901, 1905, 2214, 2549, 2229, 101, 662, 674, 1685, 107, 678, 
1907, 959, 963, 104, 663, 675, 1686, 103, 676, 110, 679, 109, 722, 
1725, 732
1641, 719, 94, 656, 1715, 1716, 657, 1677, 2418, 122, 708, 712, 1711, 2211, 
938, 2545, 1885, 1348, 2212, 653, 1673, 1674, 2409, 2461, 1888, 1889, 944, 
2465, 1903, 655, 97, 1676, 660, 720, 1717, 124, 713, 126, 721, 1718, 
716, 100, 664, 2214, 939, 1351, 661, 1678, 1886, 942, 1901, 663, 103, 
722, 128
1642, 1724, 673, 1687, 2420, 731, 106, 680, 1726, 126, 721, 1718, 716, 724, 
1720, 100, 664, 130, 728, 2214, 939, 2549, 1890, 1351, 2227, 2229, 945, 
1369, 661, 1678, 1684, 2411, 677, 1688, 2462, 1886, 1893, 942, 1891, 947, 
2466, 1901, 1905, 663, 103, 1686, 676, 679, 109, 722, 1725, 732, 128, 
725, 132
** ... 70 like lines cut
*Element, type=U10,elset=AllEls
1657, 657, 1674, 2409, 1677, 100, 661, 1678, 664, 94, 653, 1673, 656, 719, 
1715, 1716, 2418, 721, 1718, 938, 1885, 2461, 1888, 1889, 944, 939, 1886, 
942, 2465, 1903, 1901, 2211, 2545, 2214, 95, 654, 658, 1675, 101, 662, 
1904, 961, 959, 98, 655, 659, 1676, 97, 660, 104, 663, 103, 720, 
1717, 722, 673, 1684, 2411, 1687, 1724, 2420, 1890, 2462, 1893, 2466, 2549, 
674, 1685, 1907, 675, 1686, 676, 1725
1658, 100, 661, 1678, 664, 673, 1684, 2411, 1687, 657, 1674, 2409, 1677, 1716, 
2418, 721, 1718, 1724, 2420, 1885, 939, 1886, 2461, 942, 1889, 1890, 2462, 
1893, 1901, 2465, 2466, 2545, 2214, 2549, 658, 1675, 101, 662, 674, 1685, 
959, 1904, 1907, 659, 1676, 104, 663, 660, 103, 675, 1686, 676, 1717, 
722, 1725, 106, 677, 1688, 680, 731, 1726, 945, 1891, 947, 1905, 2229, 
107, 678, 963, 110, 679, 109, 732
1659, 1716, 657, 1677, 2418, 721, 100, 664, 1718, 122, 719, 1715, 708, 712, 
1711, 94, 656, 126, 716, 2211, 938, 2545, 1885, 1348, 2212, 2214, 939, 
1351, 653, 1673, 1674, 2409, 661, 1678, 2461, 1888, 1889, 944, 1886, 942, 
2465, 1903, 1901, 655, 97, 1676, 660, 663, 103, 720, 1717, 722, 124, 
713, 128, 724, 1724, 2420, 1720, 673, 1687, 2549, 1890, 2227, 1684, 2411, 
2462, 1893, 2466, 1686, 676, 1725, 725
1660, 721, 100, 664, 1718, 1724, 673, 1687, 2420, 712, 1716, 2418, 1711, 126, 
716, 657, 1677, 724, 1720, 2545, 1885, 2214, 939, 2212, 1351, 2549, 1890, 
** ... 40 like lines cut
*Element, type=U11,elset=AllEls
1667, 1817, 2443, 1816, 850, 853, 1818, 852, 184, 175, 834, 1814, 848, 837, 
1807, 847, 178, 181, 839, 176, 846, 836, 1815, 179, 849, 182, 851, 
185, 2132, 1253, 2561, 2265, 1245, 2263, 2266, 1406, 1404, 1508, 2357, 2358, 
2586, 1509, 2359, 860, 1824, 2447, 1832, 1831, 868, 859, 1830, 867, 2563, 
2272, 2270, 2363, 2588
1668, 2444, 1820, 856, 1821, 1822, 857, 186, 858, 176, 842, 1819, 846, 836, 
1812, 1815, 177, 854, 843, 180, 855, 179, 849, 182, 845, 851, 183, 
185, 1242, 2125, 2267, 2562, 1408, 2269, 1418, 2277, 2278, 2565, 1423, 2281, 
1245, 2263, 1404, 859, 1828, 2448, 1830, 864, 1834, 872, 1835, 867, 2274, 
2564, 2286, 2567, 2270
1669, 853, 1818, 852, 184, 1832, 2447, 1831, 868, 837, 1807, 2443, 1817, 181, 
839, 1816, 850, 860, 1824, 836, 1815, 182, 851, 849, 185, 859, 1830, 
867, 2561, 2265, 2266, 1406, 2263, 1404, 2563, 2272, 2270, 2358, 2586, 1509, 
2359, 2363, 2588, 187, 862, 1833, 871, 870, 190, 188, 869, 191, 2273, 
1414, 1412, 889, 2364
1670, 1822, 857, 186, 858, 2448, 1834, 872, 1835, 836, 1812, 2444, 1815, 182, 
845, 851, 843, 1820, 183, 856, 1821, 849, 185, 859, 1828, 1830, 864, 
867, 2267, 2562, 1408, 2269, 2274, 2564, 2278, 2565, 1423, 2281, 2286, 2567, 
2263, 1404, 2270, 188, 866, 1836, 869, 189, 873, 192, 874, 191, 1416, 
2276, 893, 2289, 1412
** ... 440 like lines cut
*Element, type=U12,elset=AllEls
1759, 1832, 2447, 1831, 868, 871, 1833, 870, 190, 181, 839, 1818, 853, 860, 
1824, 852, 184, 187, 862, 182, 851, 859, 1830, 185, 867, 188, 869, 
191, 2266, 1406, 2563, 2272, 1404, 2270, 2273, 1414, 1412, 1509, 2359, 2363, 
2588, 889, 2364, 878, 1839, 2451, 1848, 1847, 877, 1846, 888, 2590, 2367

1760, 2448, 1834, 872, 1835, 1836, 873, 192, 874, 182, 845, 1822, 851, 859, 
1828, 1830, 183, 857, 864, 186, 858, 185, 867, 188, 866, 869, 189, 
191, 1408, 2269, 2274, 2564, 1416, 2276, 1423, 2281, 2286, 2567, 893, 2289, 
1404, 2270, 1412, 877, 1844, 2452, 1846, 884, 1850, 1851, 888, 2592, 2367

1761, 871, 1833, 870, 190, 1848, 2451, 1847, 889, 860, 1824, 2447, 1832, 187, 
862, 1831, 868, 878, 1839, 859, 1830, 188, 869, 867, 191, 877, 1846, 
888, 2563, 2272, 2273, 1414, 2270, 1412, 2364, 2590, 2367, 2363, 2588, 196, 
881, 1849, 892, 891, 199, 197, 890, 200, 1511, 2365, 1512, 1510, 2361

1762, 1836, 873, 192, 874, 2452, 1850, 893, 1851, 859, 1828, 2448, 1830, 188, 
866, 869, 864, 1834, 189, 872, 1835, 867, 191, 877, 1844, 1846, 884, 
888, 2274, 2564, 1416, 2276, 2286, 2567, 2289, 2592, 2270, 1412, 2367, 197, 
887, 1852, 890, 198, 894, 201, 895, 200, 1430, 2287, 1432, 2368, 1512

1763, 2104, 854, 180, 1220, 2516, 1819, 855, 2105, 330, 1210, 1212, 1205, 2097, 
2100, 177, 842, 332, 1215, 1812, 843, 1820, 2444, 856, 1821, 1242, 2124, 
2125, 2522, 2267, 2562, 1418, 2277, 2278, 2565, 1234, 2120, 334, 1211, 2106, 
1217, 176, 846, 179, 1221, 336, 836, 1815, 849, 1245, 2127, 2263, 1239

1764, 2520, 1814, 847, 2117, 2118, 848, 178, 1233, 334, 1211, 2106, 1217, 1222, 
2111, 2113, 176, 846, 834, 179, 1221, 336, 1228, 338, 1227, 1230, 175, 
340, 837, 1807, 2443, 1817, 836, 1815, 849, 1816, 850, 1245, 2127, 2132, 
2524, 1253, 2134, 2561, 2265, 2263, 1239, 2128, 1249, 1508, 2357, 2358, 2586

1765, 872, 2286, 2567, 2274, 192, 893, 2289, 1416, 1822, 857, 186, 858, 2448, 
1834, 1835, 1836, 873, 874, 1408, 2269, 2564, 2276, 1423, 2281, 412, 1424, 
1430, 2287, 201, 1432, 413, 1425, 1431, 2288, 406, 1415, 414, 1433, 409, 
1409, 2275, 1417, 2452, 1850, 1851, 2592, 1852, 894, 895, 2368, 2351, 1500

1766, 2363, 868, 2272, 2588, 889, 190, 1414, 2364, 440, 1509, 2359, 1507, 1510, 
2361, 184, 1406, 199, 1511, 853, 1818, 852, 1832, 2447, 1831, 871, 1833, 
870, 2266, 2563, 2273, 1405, 404, 2271, 1411, 1413, 407, 1480, 2336, 1489, 
430, 1482, 433, 1848, 2451, 1847, 892, 1849, 891, 2590, 2365, 2344, 1491

*Element, type=U13,elset=AllEls
1767, 1924, 2471, 1923, 982, 985, 1925, 984, 235, 226, 960, 1911, 969, 974, 
1916, 968, 229, 232, 976, 227, 967, 973, 1922, 230, 981, 233, 983, 
236, 1013, 1944, 1949, 2477, 1014, 1950, 1022, 1952, 1023, 1940, 1010, 1941, 
2475, 1011, 1942
1768, 2472, 1926, 986, 1927, 1928, 987, 237, 988, 227, 964, 1914, 967, 973, 
1920, 1922, 228, 971, 978, 231, 972, 230, 981, 233, 980, 983, 234, 
236, 1956, 2479, 1030, 1959, 1957, 1031, 1963, 1037, 1964, 2481, 1038, 1965, 
1022, 1952, 1023
1769, 1940, 1010, 1941, 2475, 1013, 235, 982, 1944, 244, 997, 1934, 1000, 1009, 
1943, 245, 998, 250, 1015, 247, 999, 1011, 1942, 229, 1014, 246, 1012, 
251, 1020, 1949, 2477, 1951, 984, 1923, 1924, 2471, 985, 1925, 969, 1911, 
968, 1950, 1021
1770, 1030, 237, 986, 1959, 1963, 1037, 1964, 2481, 1028, 1956, 2479, 1958, 256, 
1032, 988, 1927, 1036, 1966, 2472, 1926, 1928, 987, 1914, 971, 231, 972, 
1957, 1031, 1038, 1965, 1029, 257, 1039, 259, 1040, 1967, 1043, 260, 1041, 
262, 1042, 261
1771, 1072, 1986, 1071, 273, 1989, 2486, 1988, 1074, 271, 1063, 1066, 1983, 272, 
1070, 1065, 1987, 274, 1073, 1503, 2353, 2354, 2585, 1467, 2322, 2321, 1470, 
2577, 2325, 275, 1068, 1990, 1077, 1076, 277, 276, 1075, 278, 1506, 2356, 
1474, 2326, 1477
** ... 36 like lines cut
*Element, type=U14,elset=AllEls
1781, 1013, 235, 982, 1944, 1949, 984, 1923, 2477, 1009, 1940, 2475, 1943, 250, 
1015, 1010, 1941, 1020, 1951, 1924, 2471, 985, 1925, 969, 1911, 968, 229, 
1011, 1942, 1014, 1950, 1012, 251, 1021, 253, 1022, 1952, 1024, 236, 981, 
1922, 983, 967, 230, 1023, 254
1782, 1956, 988, 1927, 2479, 1030, 237, 986, 1959, 253, 1022, 1952, 1024, 1028, 
1958, 236, 981, 256, 1032, 2472, 1926, 1928, 987, 1922, 983, 1914, 971, 
231, 972, 967, 230, 1023, 1957, 1031, 254, 1029, 257, 1036, 1963, 2481, 
1966, 1037, 1964, 1038, 1965, 1039
1783, 2282, 1116, 291, 1427, 2566, 2024, 1114, 2284, 410, 1426, 1419, 1421, 2283, 
2279, 292, 1113, 411, 1422, 2496, 2023, 2026, 1115, 2025, 1117, 1456, 2311, 
2312, 2574, 1451, 2308, 412, 1428, 2285, 1424, 288, 1106, 287, 1429, 413, 
2018, 1105, 1107, 1459, 2314, 1454
1784, 1071, 2353, 1467, 273, 1988, 2585, 2322, 1074, 1986, 1070, 274, 2486, 1987, 
1073, 1072, 1989, 1503, 2354, 439, 1504, 1505, 2355, 427, 1471, 2321, 1470, 
2577, 2325, 1468, 2323, 1990, 1075, 278, 1076, 1077, 277, 1506, 2356, 1474, 
440, 1507, 430, 2326, 1477, 1475
*Element, type=U15,elset=AllEls
1785, 1264, 352, 1284, 2156, 2142, 1265, 2157, 2530, 2140, 1263, 2526, 2141, 1255, 
351, 2136, 1258, 1276, 2152, 2570, 2297, 1440, 2298, 2307, 1452, 2573, 2309, 
361, 1285, 1286, 2158, 360, 1279, 2143, 1266, 355, 1267, 1260, 354, 2159, 
1281, 1287, 2293, 1435, 370, 1288, 369
1786, 2149, 1273, 2189, 2538, 1275, 358, 1327, 2191, 2143, 1266, 355, 1267, 2528, 
2148, 1260, 354, 2144, 1268, 2150, 1274, 1270, 357, 2159, 1281, 2185, 1287, 
1323, 2569, 2293, 1435, 2294, 2295, 1436, 370, 1288, 1326, 2190, 379, 1328, 
369, 1321, 378, 2327, 1479, 2578, 2329
1787, 1263, 2307, 1452, 352, 2297, 2573, 2309, 1440, 1243, 343, 2140, 2126, 1244, 
2141, 2526, 1264, 1265, 2142, 2268, 1407, 2570, 2298, 1420, 2280, 411, 1451, 
1422, 2308, 421, 1453, 1284, 2156, 2157, 2530, 1409, 406, 1441, 2299, 417, 
1442, 1425, 2310, 1455, 413, 1454, 423
1788, 2327, 1274, 358, 1479, 2578, 2295, 1436, 2329, 427, 1478, 1468, 1471, 2328, 
2323, 349, 1403, 429, 1472, 2133, 1252, 2148, 2528, 1254, 2150, 1273, 2149, 
1275, 2264, 2569, 2294, 2189, 2538, 1327, 2191, 430, 1480, 2330, 1475, 404, 
1439, 415, 1481, 432, 1405, 2296, 1438
*Element, type=U16,elset=AllEls
1789, 178, 847, 2132, 1253, 850, 1816, 2561, 2265, 848, 1814, 1817, 2443, 2520, 
2117, 2118, 1233, 2524, 2134, 1508, 2357, 2358, 2586, 846, 179, 1815, 849, 
2106, 1221, 1245, 2127, 2263, 346, 1246, 1252, 2133, 349, 1254, 1402, 2264, 
1403, 1478, 2328, 853, 1818, 852, 184, 2266, 1406, 1509, 2359, 851, 185, 
1404, 405, 1405, 404, 1480
1790, 855, 180, 1242, 2125, 1821, 856, 2267, 2562, 1819, 854, 2444, 1820, 846, 
179, 1815, 849, 2104, 1220, 2516, 2105, 2106, 1221, 2124, 2522, 1245, 2127, 
2263, 1418, 2277, 2278, 2565, 343, 1243, 1244, 2126, 1407, 2268, 1420, 2280, 
346, 1246, 1402, 1822, 857, 186, 858, 851, 185, 2269, 1404, 1408, 1423, 
2281, 406, 1409, 1425, 405
*Element, type=U17,elset=AllEls
1791, 180, 1418, 2277, 1242, 856, 2278, 2565, 2267, 1819, 854, 855, 2444, 1820, 
1821, 2104, 1220, 2516, 2105, 2124, 2125, 2522, 2562, 410, 1419, 1421, 2279, 
411, 1420, 1422, 2280, 343, 1407, 1243, 1244, 2126, 2268, 1822, 857, 186, 
858, 1408, 2269, 1423, 2281, 412, 1424, 413, 1425, 406, 1409
1792, 1508, 178, 1253, 2357, 2358, 850, 2265, 2586, 439, 1504, 1505, 2355, 848, 
1814, 847, 1817, 2443, 1816, 2520, 2117, 2118, 1233, 2132, 2524, 2134, 2561, 
1252, 2133, 349, 1254, 2264, 1403, 1478, 2328, 427, 1471, 440, 1509, 2359, 
1507, 184, 1406, 853, 1818, 852, 2266, 1405, 404, 1480, 430
*ELSET,ELSET=EltPAtch1,generate
1, 1792, 1
*UEL PROPERTY, ELSET=EltPAtch1
**---E11---|---v12---|----c1---|---c2----|---c3----|----c4---|----c5---|---c6----|
    100000,     0.3,     1.0e6,    6.0e1,   80.000,   0.2500,   0.9000,    2.239,
**
**---Y0----|----ep0--|---Y1----|----ep1--|---Y2----|----ep2--|---Y3----|----ep3--|
  1157.000,    0.000,   0.0000,   0.0100,1207.5147,  0.00000,1224.9017,   0.0500,
**
**---Y4----|----ep4--|---Y5----|----ep5--|---Y6----|----ep6--|---Y7----|----ep7--|
1252.362103,   0.0800,1270.5188,   0.1000,  1426.00,   0.3000,   1538.0,   0.6000,
**-------------------------> PROPS(28) | JPROPS(1)
**---fGT---|---fxC---|---Gxc---|---fGc---|-CohType-|--FtgMnt-|-psudo3D-|-VirtualE|
     0.4,      0.5,     65.0,      0.5,        2,        1,        0,        4, 
**-----------------------------> JPROPS(8)
** --NPLY--|--FaiCrt-|CDDC_NE_D|---------|
       1,        3,        0,        0
*End Part
*Assembly, name=Assembly
*Instance, name=I1, part=Piece
*End Instance
*End Assembly
*MATERIAL,NAME=MAT
*Elastic
100000, 0.3
**
** Modification (3): Add an amplitude definition
**
*amplitude, name=AMP1
0.0, 1.0, 1.0e6, 1.0
**
** Modification (4): Add a *Temperature line
**
*Temperature, amplitude=AMP1
I1.AllNode, 0.0
*node file, frequency=1
U,RF,CF
*el file, frequency=1
SDV
*End Step
