*HEADING
*Part, name=Piece
*USER ELEMENT, NODES=36, TYPE=U1, COORDINATES=3, variables=1404, I PROPERTIES=8, PROPERTIES=28
1,2,3
*USER ELEMENT, NODES=60, TYPE=U2, COORDINATES=3, variables=2340, I PROPERTIES=8, PROPERTIES=28
1,2,3
*USER ELEMENT, NODES=48, TYPE=U3, COORDINATES=3, variables=1872, I PROPERTIES=8, PROPERTIES=28
1,2,3
*USER ELEMENT, NODES=51, TYPE=U4, COORDINATES=3, variables=1989, I PROPERTIES=8, PROPERTIES=28
1,2,3
*USER ELEMENT, NODES=27, TYPE=U5, COORDINATES=3, variables=1053, I PROPERTIES=8, PROPERTIES=28
1,2,3
*USER ELEMENT, NODES=54, TYPE=U6, COORDINATES=3, variables=2106, I PROPERTIES=8, PROPERTIES=28
1,2,3
*USER ELEMENT, NODES=52, TYPE=U7, COORDINATES=3, variables=2028, I PROPERTIES=8, PROPERTIES=28
1,2,3
*USER ELEMENT, NODES=56, TYPE=U8, COORDINATES=3, variables=2184, I PROPERTIES=8, PROPERTIES=28
1,2,3
*USER ELEMENT, NODES=42, TYPE=U9, COORDINATES=3, variables=1638, I PROPERTIES=8, PROPERTIES=28
1,2,3
*USER ELEMENT, NODES=18, TYPE=U10, COORDINATES=3, variables=702, I PROPERTIES=8, PROPERTIES=28
1,2,3
*USER ELEMENT, NODES=24, TYPE=U11, COORDINATES=3, variables=936, I PROPERTIES=8, PROPERTIES=28
1,2,3
*USER ELEMENT, NODES=30, TYPE=U12, COORDINATES=3, variables=1170, I PROPERTIES=8, PROPERTIES=28
1,2,3
*USER ELEMENT, NODES=40, TYPE=U13, COORDINATES=3, variables=1560, I PROPERTIES=8, PROPERTIES=28
1,2,3
*USER ELEMENT, NODES=33, TYPE=U14, COORDINATES=3, variables=1287, I PROPERTIES=8, PROPERTIES=28
1,2,3
*USER ELEMENT, NODES=44, TYPE=U15, COORDINATES=3, variables=1716, I PROPERTIES=8, PROPERTIES=28
1,2,3
*USER ELEMENT, NODES=46, TYPE=U16, COORDINATES=3, variables=1794, I PROPERTIES=8, PROPERTIES=28
1,2,3
*USER ELEMENT, NODES=57, TYPE=U17, COORDINATES=3, variables=2223, I PROPERTIES=8, PROPERTIES=28
1,2,3
*USER ELEMENT, NODES=50, TYPE=U18, COORDINATES=3, variables=1950, I PROPERTIES=8, PROPERTIES=28
1,2,3
*USER ELEMENT, NODES=66, TYPE=U19, COORDINATES=3, variables=2574, I PROPERTIES=8, PROPERTIES=28
1,2,3
*USER ELEMENT, NODES=72, TYPE=U20, COORDINATES=3, variables=2808, I PROPERTIES=8, PROPERTIES=28
1,2,3
** ... 26 like lines cut
*Node,nset=AllNode
1,	4.642714,	2.99495,	1.379323
2,	4.77073305,	3.07960513,	1.3793285
3,	4.92109161,	3.109254,	1.3793355
4,	5.07144792,	3.07959839,	1.37934275
5,	5.199471,	2.99495,	1.379349
6,	4.642726,	2.994946,	0.9850225
7,	4.77046257,	3.08020907,	0.985020426
8,	4.92112131,	3.10981037,	0.985031397
9,	5.07174496,	3.08021019,	0.985031518
10,	5.199484,	2.994946,	0.98504
11,	4.642738,	2.994942,	0.590722
12,	4.77076686,	3.07958752,	0.590723749
13,	4.92111815,	3.1092435,	0.5907255
14,	5.07146806,	3.07958743,	0.590728251
15,	5.199497,	2.994942,	0.590731
16,	4.28985335,	3.2974767,	1.379304
17,	4.60897719,	3.3154715,	1.37931823
18,	4.92112992,	3.3360921,	1.37933328
19,	5.23327972,	3.31548849,	1.37934834
20,	5.5523947,	3.2974756,	1.379364
** ... 465 like lines cut
*Element, type=U1,elset=AllEls
1, 1, 2, 7, 6, 16, 17, 22, 21, 167, 169, 171, 173, 3, 
8, 18, 23, 12, 11, 27, 26, 13, 28, 163, 165, 31, 32, 
37, 36, 153, 161, 33, 38, 42, 41, 43, 145
2, 2, 3, 8, 7, 17, 18, 23, 22, 1, 6, 16, 21, 4, 
9, 19, 24, 13, 12, 28, 27, 14, 29, 11, 26, 31, 32, 
37, 36, 33, 38, 34, 39, 43, 42, 44, 41
3, 3, 4, 9, 8, 18, 19, 24, 23, 2, 7, 17, 22, 5, 
10, 20, 25, 14, 13, 29, 28, 15, 30, 12, 27, 32, 33, 
38, 37, 34, 39, 35, 40, 44, 43, 45, 42
4, 4, 5, 10, 9, 19, 20, 25, 24, 3, 8, 18, 23, 86, 
87, 92, 93, 15, 14, 30, 29, 85, 91, 13, 28, 33, 34, 
39, 38, 35, 40, 80, 81, 45, 44, 79, 43
5, 6, 7, 12, 11, 21, 22, 27, 26, 1, 2, 16, 17, 163, 
165, 167, 169, 171, 173, 3, 8, 18, 23, 13, 28, 31, 32, 
37, 36, 42, 41, 145, 153, 161, 33, 38, 43
6, 7, 8, 13, 12, 22, 23, 28, 27, 1, 2, 6, 16, 17, 
21, 3, 18, 11, 26, 4, 9, 19, 24, 14, 29, 31, 32, 
37, 36, 33, 38, 42, 41, 43, 34, 39, 44
7, 8, 9, 14, 13, 23, 24, 29, 28, 2, 3, 7, 17, 18, 
22, 4, 19, 12, 27, 5, 10, 20, 25, 15, 30, 32, 33, 
** ... 220 like lines cut
*Element, type=U2,elset=AllEls
81, 16, 17, 22, 21, 31, 32, 37, 36, 1, 2, 7, 6, 153, 
167, 161, 171, 169, 173, 3, 8, 18, 23, 33, 38, 12, 11, 
27, 26, 13, 28, 42, 41, 43, 145, 163, 165, 46, 47, 52, 
51, 150, 151, 158, 159, 177, 176, 183, 182, 330, 334, 48, 53, 
57, 56, 58, 142, 143, 175, 181, 338
82, 21, 22, 27, 26, 36, 37, 42, 41, 1, 2, 7, 6, 16, 
17, 12, 11, 31, 32, 145, 163, 153, 167, 165, 169, 161, 171, 
173, 3, 8, 18, 23, 13, 28, 33, 38, 43, 46, 47, 52, 
51, 57, 56, 142, 143, 150, 151, 158, 159, 176, 175, 182, 181, 
177, 183, 330, 334, 338, 48, 53, 58
83, 31, 32, 37, 36, 46, 47, 52, 51, 16, 17, 22, 21, 150, 
151, 153, 158, 159, 161, 167, 171, 177, 176, 183, 182, 330, 334, 
18, 23, 33, 38, 48, 53, 27, 26, 42, 41, 28, 43, 57, 
56, 58, 142, 143, 145, 163, 175, 181, 338, 61, 62, 67, 66, 
329, 333, 63, 68, 72, 71, 73, 337
84, 36, 37, 42, 41, 51, 52, 57, 56, 16, 17, 22, 21, 31, 
32, 27, 26, 46, 47, 142, 143, 145, 150, 151, 153, 158, 159, 
161, 163, 167, 171, 176, 175, 182, 181, 177, 183, 330, 334, 338, 
18, 23, 33, 38, 28, 43, 48, 53, 58, 61, 62, 67, 66, 
72, 71, 329, 333, 337, 63, 68, 73
** ... 130 like lines cut
*Element, type=U3,elset=AllEls
111, 17, 18, 23, 22, 32, 33, 38, 37, 1, 2, 7, 6, 16, 
21, 3, 8, 31, 36, 4, 9, 19, 24, 34, 39, 13, 12, 
28, 27, 14, 29, 43, 42, 44, 11, 26, 41, 46, 47, 52, 
51, 48, 53, 49, 54, 58, 57, 59, 56
112, 18, 19, 24, 23, 33, 34, 39, 38, 2, 3, 8, 7, 17, 
22, 4, 9, 32, 37, 5, 10, 20, 25, 35, 40, 14, 13, 
29, 28, 15, 30, 44, 43, 45, 12, 27, 42, 47, 48, 53, 
52, 49, 54, 50, 55, 59, 58, 60, 57
113, 22, 23, 28, 27, 37, 38, 43, 42, 1, 2, 7, 6, 16, 
17, 21, 3, 8, 18, 12, 11, 26, 13, 31, 32, 36, 33, 
41, 4, 9, 19, 24, 14, 29, 34, 39, 44, 46, 47, 52, 
51, 48, 53, 57, 56, 58, 49, 54, 59
114, 23, 24, 29, 28, 38, 39, 44, 43, 2, 3, 8, 7, 17, 
18, 22, 4, 9, 19, 13, 12, 27, 14, 32, 33, 37, 34, 
42, 5, 10, 20, 25, 15, 30, 35, 40, 45, 47, 48, 53, 
52, 49, 54, 58, 57, 59, 50, 55, 60
115, 32, 33, 38, 37, 47, 48, 53, 52, 16, 17, 22, 21, 31, 
36, 18, 23, 46, 51, 19, 24, 34, 39, 49, 54, 28, 27, 
43, 42, 29, 44, 58, 57, 59, 26, 41, 56, 61, 62, 67, 
66, 63, 68, 64, 69, 73, 72, 74, 71
** ... 68 like lines cut
*Element, type=U4,elset=AllEls
133, 19, 20, 25, 24, 34, 35, 40, 39, 3, 4, 9, 8, 18, 
23, 5, 10, 33, 38, 80, 81, 86, 87, 92, 93, 15, 14, 
30, 29, 45, 44, 79, 85, 91, 13, 28, 43, 48, 49, 54, 
53, 50, 55, 303, 304, 315, 316, 60, 59, 327, 328, 58
134, 24, 25, 30, 29, 39, 40, 45, 44, 3, 4, 9, 8, 18, 
19, 23, 5, 10, 20, 14, 13, 28, 15, 33, 34, 38, 35, 
43, 79, 80, 85, 86, 81, 87, 91, 92, 93, 48, 49, 54, 
53, 50, 55, 59, 58, 60, 303, 304, 315, 316, 327, 328
135, 34, 35, 40, 39, 49, 50, 55, 54, 18, 19, 24, 23, 33, 
38, 20, 25, 48, 53, 80, 81, 86, 87, 303, 304, 315, 316, 
30, 29, 45, 44, 60, 59, 79, 85, 327, 328, 28, 43, 58, 
63, 64, 69, 68, 65, 70, 302, 314, 75, 74, 326, 73
136, 39, 40, 45, 44, 54, 55, 60, 59, 18, 19, 24, 23, 33, 
34, 38, 20, 25, 35, 29, 28, 43, 30, 48, 49, 53, 50, 
58, 79, 80, 85, 86, 81, 87, 303, 304, 315, 316, 327, 328, 
63, 64, 69, 68, 65, 70, 74, 73, 75, 302, 314, 326
137, 342, 343, 352, 351, 345, 346, 355, 354, 331, 332, 341, 335, 336, 
344, 180, 179, 350, 353, 185, 186, 406, 405, 410, 411, 412, 413, 
417, 416, 421, 423, 361, 360, 370, 369, 359, 368, 339, 340, 348, 
347, 178, 349, 357, 356, 358, 184, 404, 415, 379, 378, 377
** ... 20 like lines cut
*Element, type=U5,elset=AllEls
143, 76, 77, 80, 79, 82, 83, 86, 85, 78, 81, 84, 87, 40, 
45, 25, 30, 35, 20, 88, 89, 92, 91, 90, 93, 10, 15, 
5
144, 77, 78, 81, 80, 83, 84, 87, 86, 76, 79, 82, 85, 35, 
40, 20, 25, 45, 30, 88, 89, 92, 91, 90, 93, 5, 10, 
15
145, 82, 83, 86, 85, 88, 89, 92, 91, 76, 77, 80, 79, 78, 
81, 84, 87, 90, 93, 40, 45, 25, 30, 35, 20, 10, 15, 
5
146, 83, 84, 87, 86, 89, 90, 93, 92, 76, 77, 80, 79, 82, 
85, 78, 81, 88, 91, 35, 40, 20, 25, 5, 10, 45, 30, 
15
147, 98, 99, 114, 113, 104, 105, 117, 116, 94, 95, 97, 100, 101, 
103, 96, 102, 112, 115, 106, 107, 110, 109, 108, 111, 119, 118, 
120
148, 104, 105, 117, 116, 110, 111, 120, 119, 94, 95, 98, 97, 100, 
101, 103, 96, 99, 102, 106, 107, 109, 108, 113, 112, 115, 114, 
118
149, 123, 124, 134, 133, 127, 128, 136, 135, 121, 122, 125, 126, 94, 
97, 100, 103, 112, 115, 129, 130, 132, 131, 138, 137, 106, 109, 
** ... 10 like lines cut
*Element, type=U6,elset=AllEls
153, 94, 95, 98, 97, 100, 101, 104, 103, 122, 124, 126, 128, 211, 
212, 215, 214, 221, 220, 227, 226, 386, 390, 96, 99, 102, 105, 
233, 232, 113, 112, 116, 115, 114, 117, 134, 136, 106, 107, 110, 
109, 130, 132, 213, 216, 222, 228, 394, 108, 111, 234, 119, 118, 
120, 138
154, 100, 101, 104, 103, 106, 107, 110, 109, 94, 95, 98, 97, 122, 
124, 126, 128, 130, 132, 211, 212, 215, 214, 221, 220, 213, 216, 
222, 227, 226, 228, 386, 390, 394, 96, 99, 102, 105, 108, 111, 
233, 232, 234, 113, 112, 116, 115, 114, 117, 119, 118, 120, 134, 
136, 138
155, 122, 94, 97, 124, 126, 100, 103, 128, 121, 123, 125, 127, 386, 
211, 390, 212, 387, 391, 95, 98, 101, 104, 215, 214, 221, 220, 
227, 226, 113, 112, 116, 115, 134, 136, 133, 135, 129, 130, 132, 
131, 106, 109, 394, 213, 395, 107, 110, 216, 222, 228, 119, 118, 
138, 137
156, 126, 100, 103, 128, 130, 106, 109, 132, 121, 122, 124, 123, 125, 
127, 94, 97, 129, 131, 386, 211, 390, 212, 387, 391, 394, 213, 
395, 95, 98, 101, 104, 107, 110, 215, 214, 221, 220, 216, 222, 
227, 226, 228, 113, 112, 116, 115, 119, 118, 134, 136, 138, 133, 
135, 137
** ... 70 like lines cut
*Element, type=U7,elset=AllEls
171, 181, 182, 185, 184, 187, 188, 191, 190, 41, 36, 176, 175, 142, 
150, 179, 178, 139, 147, 31, 177, 158, 183, 180, 186, 155, 189, 
192, 346, 349, 405, 404, 343, 406, 408, 407, 409, 439, 427, 440, 
430, 199, 433, 193, 194, 197, 196, 200, 195, 198, 201, 436, 414

172, 182, 183, 186, 185, 188, 189, 192, 191, 41, 36, 176, 175, 142, 
150, 181, 31, 177, 158, 179, 178, 184, 180, 139, 147, 187, 155, 
190, 343, 346, 406, 405, 409, 408, 410, 411, 412, 413, 201, 414, 
349, 404, 407, 193, 194, 197, 196, 195, 198, 200, 199, 436, 433

173, 187, 188, 191, 190, 196, 197, 200, 199, 142, 150, 182, 181, 139, 
147, 185, 184, 193, 194, 158, 183, 155, 189, 186, 192, 195, 198, 
201, 405, 404, 408, 407, 406, 409, 433, 436, 414, 440, 430, 202, 
203, 206, 205, 209, 208, 204, 207, 210, 280, 282, 284, 278, 277

174, 188, 189, 192, 191, 197, 198, 201, 200, 142, 150, 182, 181, 139, 
147, 187, 158, 183, 155, 185, 184, 190, 186, 193, 194, 196, 195, 
199, 406, 405, 409, 408, 412, 413, 414, 436, 404, 407, 433, 202, 
203, 206, 205, 204, 207, 209, 208, 210, 288, 287, 284, 282, 280

175, 279, 217, 208, 280, 281, 218, 209, 282, 248, 249, 276, 275, 252, 
223, 278, 277, 255, 224, 205, 206, 214, 215, 220, 221, 196, 197, 
200, 199, 440, 430, 433, 436, 432, 431, 435, 434, 438, 437, 258, 
225, 219, 283, 210, 284, 207, 216, 222, 198, 201, 414, 425, 426

176, 281, 218, 209, 282, 283, 219, 210, 284, 252, 223, 217, 279, 255, 
224, 208, 280, 258, 225, 205, 206, 214, 215, 207, 216, 220, 221, 
222, 196, 197, 200, 199, 198, 201, 433, 436, 414, 435, 434, 438, 
437, 425, 426, 263, 264, 286, 285, 288, 287, 412, 413, 424, 423

177, 330, 177, 180, 332, 334, 176, 179, 336, 61, 46, 329, 66, 51, 
333, 31, 36, 331, 335, 150, 158, 183, 182, 186, 185, 343, 342, 
346, 345, 406, 405, 410, 411, 412, 413, 341, 344, 71, 56, 338, 
337, 41, 175, 340, 339, 178, 142, 181, 184, 349, 348, 404, 347

178, 334, 176, 179, 336, 338, 175, 178, 340, 61, 46, 330, 329, 66, 
51, 333, 31, 177, 36, 332, 331, 335, 180, 71, 56, 337, 41, 
339, 142, 150, 182, 181, 158, 183, 185, 184, 186, 343, 342, 346, 
345, 349, 348, 405, 404, 406, 341, 344, 347, 439, 427, 440, 430

179, 186, 412, 413, 406, 192, 201, 414, 409, 176, 177, 180, 179, 182, 
183, 185, 188, 189, 191, 343, 346, 405, 408, 410, 411, 292, 291, 
288, 287, 210, 284, 421, 352, 423, 417, 422, 424, 425, 420, 426, 
355, 416, 419, 197, 198, 200, 436, 206, 207, 209, 282, 438, 437

180, 412, 288, 287, 413, 201, 210, 284, 414, 180, 410, 411, 343, 186, 
406, 292, 291, 192, 409, 283, 219, 285, 286, 289, 290, 422, 421, 
424, 423, 426, 425, 352, 417, 420, 188, 189, 191, 197, 198, 200, 
206, 207, 209, 436, 282, 408, 215, 216, 218, 281, 438, 437, 419

181, 278, 440, 430, 277, 208, 199, 433, 280, 271, 272, 274, 273, 275, 
276, 279, 217, 439, 427, 178, 349, 184, 404, 190, 407, 429, 428, 
432, 431, 358, 415, 435, 434, 418, 196, 197, 200, 205, 206, 209, 
214, 215, 218, 281, 282, 436, 187, 188, 191, 408, 438, 437, 419

182, 440, 184, 404, 430, 199, 190, 407, 433, 274, 439, 427, 273, 278, 
277, 178, 349, 208, 280, 175, 176, 179, 181, 182, 185, 187, 188, 
191, 346, 405, 408, 355, 358, 416, 415, 419, 418, 429, 432, 435, 
428, 431, 434, 196, 197, 200, 205, 206, 209, 436, 282, 438, 437

183, 461, 451, 462, 455, 202, 388, 398, 193, 203, 392, 400, 194, 197, 
196, 206, 205, 211, 212, 215, 214, 386, 390, 387, 389, 391, 393, 
399, 401, 140, 139, 148, 147, 141, 149, 188, 187, 195, 198, 204, 
207, 213, 216, 394, 396, 402, 395, 397, 403, 156, 155, 157, 189

184, 451, 462, 455, 481, 203, 392, 400, 194, 204, 396, 402, 195, 193, 
197, 196, 202, 206, 205, 198, 207, 211, 212, 215, 214, 213, 216, 
386, 388, 390, 394, 398, 387, 389, 391, 393, 395, 397, 399, 401, 
403, 140, 139, 148, 147, 141, 149, 156, 155, 157, 188, 187, 189

*Element, type=U8,elset=AllEls
185, 220, 221, 224, 223, 226, 227, 230, 229, 211, 212, 215, 214, 94, 
100, 218, 217, 95, 101, 213, 216, 106, 222, 219, 225, 107, 228, 
231, 251, 252, 254, 255, 257, 258, 279, 281, 283, 246, 247, 249, 
248, 276, 275, 96, 102, 233, 232, 236, 235, 108, 234, 237, 250, 
253, 256, 244, 245
186, 221, 222, 225, 224, 227, 228, 231, 230, 211, 212, 215, 214, 94, 
100, 220, 213, 216, 106, 218, 217, 223, 219, 95, 101, 226, 107, 
229, 254, 255, 257, 258, 261, 262, 264, 263, 281, 283, 286, 285, 
251, 252, 279, 96, 102, 233, 232, 108, 234, 236, 235, 237, 253, 
256, 259, 260, 250
187, 208, 199, 433, 280, 209, 200, 436, 282, 196, 197, 205, 206, 214, 
215, 218, 217, 275, 276, 278, 277, 279, 281, 440, 430, 187, 188, 
191, 190, 184, 404, 407, 408, 432, 431, 435, 434, 415, 418, 438, 
437, 419, 198, 201, 207, 210, 216, 219, 283, 284, 414, 189, 192, 
409, 425, 426, 420
188, 209, 200, 436, 282, 210, 201, 414, 284, 196, 197, 199, 205, 206, 
208, 198, 207, 214, 215, 218, 217, 216, 219, 279, 280, 281, 283, 
433, 187, 188, 191, 190, 189, 192, 407, 408, 409, 435, 434, 438, 
437, 418, 419, 425, 426, 420, 285, 286, 288, 287, 412, 413, 186, 
406, 423, 417, 424
** ... 20 like lines cut
*Element, type=U9,elset=AllEls
193, 226, 227, 230, 229, 232, 233, 236, 235, 94, 100, 221, 220, 95, 
101, 224, 223, 96, 102, 106, 222, 107, 228, 225, 231, 108, 234, 
237, 250, 251, 253, 254, 252, 255, 256, 257, 258, 244, 245, 247, 
246, 249, 248
194, 227, 228, 231, 230, 233, 234, 237, 236, 94, 100, 221, 220, 95, 
101, 226, 106, 222, 107, 224, 223, 229, 225, 96, 102, 232, 108, 
235, 253, 254, 256, 257, 255, 258, 259, 260, 262, 261, 264, 263, 
250, 251, 252
195, 404, 405, 416, 415, 407, 408, 419, 418, 178, 179, 346, 349, 184, 
185, 190, 191, 355, 358, 427, 429, 430, 432, 433, 435, 439, 440, 
199, 180, 343, 186, 406, 192, 409, 352, 417, 420, 436, 438, 200, 
414, 425, 201
196, 405, 406, 417, 416, 408, 409, 420, 419, 178, 179, 346, 349, 184, 
185, 404, 180, 343, 186, 190, 191, 407, 192, 355, 358, 415, 352, 
418, 410, 411, 412, 413, 201, 414, 421, 423, 425, 433, 435, 436, 
438, 199, 200
197, 406, 413, 423, 417, 409, 414, 425, 420, 179, 180, 343, 346, 185, 
186, 405, 191, 192, 408, 410, 411, 412, 201, 352, 355, 416, 419, 
421, 292, 291, 288, 287, 210, 284, 422, 424, 426, 436, 438, 200, 
282, 437, 209
** ... 12 like lines cut
*Element, type=U10,elset=AllEls
201, 238, 239, 241, 240, 244, 245, 247, 246, 243, 242, 249, 248, 250, 
235, 229, 251, 223, 252
202, 259, 260, 262, 261, 265, 266, 268, 267, 256, 237, 231, 257, 225, 
258, 264, 263, 270, 269
*Element, type=U11,elset=AllEls
203, 240, 241, 243, 242, 246, 247, 249, 248, 238, 239, 244, 245, 272, 
271, 276, 275, 250, 235, 229, 251, 223, 252, 217, 279
204, 261, 262, 264, 263, 267, 268, 270, 269, 256, 237, 231, 257, 259, 
260, 225, 258, 265, 266, 219, 283, 286, 285, 290, 289
205, 242, 243, 272, 271, 248, 249, 276, 275, 240, 241, 246, 247, 274, 
273, 278, 277, 251, 229, 223, 252, 217, 279, 208, 280
206, 263, 264, 286, 285, 269, 270, 290, 289, 257, 231, 225, 258, 261, 
262, 267, 268, 219, 283, 210, 284, 288, 287, 292, 291
*Element, type=U12,elset=AllEls
207, 244, 245, 247, 246, 250, 235, 229, 251, 238, 239, 241, 240, 243, 
242, 249, 248, 223, 252, 253, 236, 230, 254, 226, 227, 232, 233, 
220, 221, 224, 255
208, 256, 237, 231, 257, 259, 260, 262, 261, 253, 236, 230, 254, 227, 
228, 233, 234, 221, 222, 225, 224, 255, 258, 264, 263, 265, 266, 
268, 267, 270, 269
209, 271, 272, 274, 273, 275, 276, 278, 277, 242, 243, 248, 249, 439, 
427, 440, 430, 429, 428, 432, 431, 252, 223, 217, 279, 208, 280, 
199, 433, 435, 434
210, 285, 286, 288, 287, 289, 290, 292, 291, 258, 225, 219, 283, 263, 
264, 210, 284, 269, 270, 410, 411, 412, 413, 201, 414, 422, 421, 
424, 423, 426, 425
*Element, type=U13,elset=AllEls
211, 246, 247, 249, 248, 251, 229, 223, 252, 238, 239, 241, 240, 244, 
245, 243, 242, 250, 235, 272, 271, 276, 275, 217, 279, 253, 236, 
230, 254, 224, 255, 220, 221, 226, 227, 232, 233, 214, 215, 218, 
281
212, 257, 231, 225, 258, 261, 262, 264, 263, 253, 236, 230, 254, 256, 
237, 224, 255, 259, 260, 221, 222, 227, 228, 233, 234, 215, 216, 
219, 218, 281, 283, 286, 285, 265, 266, 268, 267, 270, 269, 290, 
289
213, 248, 249, 276, 275, 252, 223, 217, 279, 240, 241, 243, 242, 246, 
247, 251, 229, 272, 271, 274, 273, 278, 277, 208, 280, 254, 230, 
224, 255, 218, 281, 214, 215, 220, 221, 226, 227, 205, 206, 209, 
282
214, 258, 225, 219, 283, 263, 264, 286, 285, 254, 230, 224, 255, 257, 
231, 261, 262, 218, 281, 215, 216, 221, 222, 227, 228, 206, 207, 
210, 209, 282, 284, 288, 287, 267, 268, 270, 269, 290, 289, 292, 
291
*Element, type=U14,elset=AllEls
215, 250, 235, 229, 251, 253, 236, 230, 254, 244, 245, 247, 246, 226, 
227, 232, 233, 220, 221, 224, 223, 249, 248, 252, 255, 256, 237, 
231, 257, 228, 234, 222, 225, 258
216, 253, 236, 230, 254, 256, 237, 231, 257, 250, 235, 229, 251, 226, 
227, 232, 233, 228, 234, 220, 221, 224, 223, 222, 225, 252, 255, 
258, 259, 260, 262, 261, 264, 263
217, 410, 292, 291, 411, 412, 288, 287, 413, 180, 343, 186, 406, 285, 
286, 289, 290, 422, 421, 424, 423, 352, 417, 192, 201, 414, 409, 
210, 284, 283, 219, 426, 425, 420
218, 411, 291, 422, 421, 413, 287, 424, 423, 180, 410, 343, 186, 412, 
406, 292, 288, 352, 417, 285, 286, 289, 290, 192, 201, 414, 409, 
210, 284, 425, 420, 426, 283, 219
219, 273, 427, 429, 428, 277, 430, 432, 431, 271, 272, 274, 275, 276, 
278, 439, 440, 349, 358, 404, 415, 178, 184, 279, 217, 208, 280, 
433, 435, 434, 199, 407, 418, 190
220, 274, 439, 427, 273, 278, 440, 430, 277, 271, 272, 275, 276, 178, 
349, 184, 404, 429, 428, 432, 431, 358, 415, 279, 217, 208, 280, 
199, 433, 190, 407, 435, 434, 418
*Element, type=U15,elset=AllEls
221, 251, 229, 223, 252, 254, 230, 224, 255, 244, 245, 247, 246, 250, 
235, 249, 248, 253, 236, 220, 221, 226, 227, 232, 233, 214, 215, 
218, 217, 276, 275, 279, 281, 256, 237, 231, 257, 225, 258, 222, 
228, 234, 216, 219, 283
222, 254, 230, 224, 255, 257, 231, 225, 258, 250, 235, 229, 251, 253, 
236, 223, 252, 256, 237, 220, 221, 226, 227, 222, 228, 232, 233, 
234, 214, 215, 218, 217, 216, 219, 279, 281, 283, 259, 260, 262, 
261, 264, 263, 286, 285
223, 252, 223, 217, 279, 255, 224, 218, 281, 246, 247, 249, 248, 251, 
229, 254, 230, 276, 275, 214, 215, 220, 221, 226, 227, 205, 206, 
209, 208, 278, 277, 280, 282, 257, 231, 225, 258, 219, 283, 216, 
222, 228, 207, 210, 284
224, 255, 224, 218, 281, 258, 225, 219, 283, 251, 229, 223, 252, 254, 
230, 257, 231, 217, 279, 214, 215, 220, 221, 216, 222, 226, 227, 
228, 205, 206, 209, 208, 207, 210, 280, 282, 284, 261, 262, 264, 
263, 286, 285, 288, 287
225, 413, 287, 424, 423, 414, 284, 426, 425, 180, 410, 411, 343, 186, 
412, 406, 292, 291, 288, 192, 201, 409, 210, 421, 352, 417, 422, 
420, 283, 219, 285, 286, 289, 290, 282, 436, 438, 437, 408, 419, 
209, 200, 191, 281, 218
** ... 12 like lines cut
*Element, type=U16,elset=AllEls
229, 351, 352, 361, 360, 354, 355, 370, 369, 341, 342, 350, 344, 345, 
353, 343, 346, 359, 368, 405, 406, 417, 416, 411, 421, 413, 423, 
364, 363, 373, 372, 362, 371, 347, 348, 357, 356, 349, 358, 378, 
377, 379, 404, 415, 382, 381, 380
230, 354, 355, 370, 369, 357, 358, 379, 378, 341, 342, 351, 350, 344, 
345, 353, 343, 352, 346, 347, 348, 356, 349, 360, 359, 368, 361, 
377, 404, 405, 416, 415, 406, 417, 364, 363, 373, 372, 382, 381, 
362, 371, 380, 427, 429, 430, 432
231, 343, 411, 421, 352, 406, 413, 423, 417, 332, 180, 342, 336, 179, 
346, 345, 351, 355, 354, 185, 186, 405, 410, 412, 416, 292, 291, 
288, 287, 422, 424, 361, 360, 370, 369, 191, 192, 409, 408, 201, 
414, 420, 419, 425, 210, 284, 426
232, 427, 349, 358, 429, 430, 404, 415, 432, 273, 428, 277, 431, 274, 
439, 278, 440, 178, 184, 336, 179, 346, 345, 340, 348, 355, 354, 
357, 185, 405, 416, 370, 369, 379, 378, 280, 433, 435, 434, 407, 
418, 208, 199, 190, 191, 408, 419
*Element, type=U17,elset=AllEls
233, 178, 179, 346, 349, 184, 185, 405, 404, 175, 176, 181, 182, 334, 
336, 338, 340, 345, 348, 439, 427, 440, 430, 177, 180, 183, 186, 
330, 332, 343, 342, 406, 352, 351, 355, 354, 358, 357, 416, 415, 
417, 429, 432, 187, 188, 191, 190, 408, 407, 199, 433, 189, 192, 
409, 419, 418, 420, 435
234, 179, 180, 343, 346, 185, 186, 406, 405, 175, 176, 178, 181, 182, 
184, 177, 183, 330, 332, 334, 336, 338, 340, 342, 345, 349, 348, 
404, 410, 411, 412, 413, 352, 351, 355, 354, 417, 416, 421, 423, 
358, 357, 415, 187, 188, 191, 190, 189, 192, 408, 407, 409, 201, 
414, 420, 419, 425, 418
235, 461, 451, 443, 452, 462, 454, 463, 457, 464, 193, 194, 197, 196, 
202, 203, 206, 205, 139, 147, 188, 187, 388, 398, 392, 400, 140, 
148, 155, 189, 195, 198, 204, 207, 396, 402, 156, 191, 190, 200, 
199, 192, 201, 209, 208, 210, 211, 212, 215, 214, 386, 390, 213, 
216, 394, 218, 217, 219
236, 461, 451, 443, 452, 457, 464, 462, 454, 463, 193, 194, 197, 196, 
202, 203, 206, 205, 139, 147, 188, 187, 388, 398, 392, 400, 140, 
148, 155, 189, 195, 198, 204, 207, 396, 402, 156, 191, 190, 200, 
199, 192, 201, 209, 208, 210, 211, 212, 215, 214, 386, 390, 213, 
216, 394, 218, 217, 219
** ... 40 like lines cut
*Element, type=U18,elset=AllEls
245, 180, 410, 411, 343, 186, 412, 413, 406, 176, 177, 179, 182, 183, 
185, 330, 332, 334, 336, 342, 346, 345, 405, 292, 291, 288, 287, 
421, 352, 423, 417, 422, 424, 351, 355, 354, 416, 188, 189, 192, 
191, 409, 408, 201, 414, 210, 284, 425, 420, 426, 419
246, 439, 178, 349, 427, 440, 184, 404, 430, 274, 273, 278, 277, 175, 
176, 179, 181, 182, 185, 334, 336, 338, 340, 346, 345, 348, 405, 
355, 354, 358, 357, 416, 415, 429, 432, 428, 431, 208, 199, 433, 
280, 190, 407, 187, 188, 191, 408, 419, 418, 435, 434
*Element, type=U19,elset=AllEls
247, 461, 451, 443, 452, 462, 454, 463, 457, 464, 453, 444, 441, 445, 
456, 447, 459, 449, 460, 193, 194, 197, 196, 202, 203, 206, 205, 
139, 147, 188, 187, 388, 398, 392, 400, 140, 148, 155, 189, 195, 
198, 204, 207, 396, 402, 156, 191, 190, 200, 199, 192, 201, 209, 
208, 210, 211, 212, 215, 214, 386, 390, 213, 216, 394, 218, 217, 
219
248, 452, 443, 457, 464, 461, 451, 462, 454, 463, 453, 444, 441, 445, 
449, 460, 456, 447, 459, 193, 194, 197, 196, 202, 203, 206, 205, 
139, 147, 188, 187, 388, 398, 392, 400, 140, 148, 155, 189, 195, 
198, 204, 207, 396, 402, 156, 191, 190, 200, 199, 192, 201, 209, 
208, 210, 211, 212, 215, 214, 386, 390, 213, 216, 394, 218, 217, 
219
249, 455, 481, 478, 446, 462, 454, 482, 458, 463, 456, 448, 442, 447, 
479, 477, 480, 450, 459, 194, 195, 198, 197, 203, 204, 207, 206, 
139, 147, 188, 187, 193, 196, 155, 189, 202, 205, 388, 398, 392, 
400, 140, 148, 396, 402, 156, 192, 191, 201, 200, 210, 209, 190, 
199, 208, 211, 212, 215, 214, 213, 216, 386, 390, 394, 219, 218, 
217
250, 446, 478, 482, 458, 462, 455, 454, 481, 463, 456, 448, 442, 447, 
479, 477, 480, 450, 459, 194, 195, 198, 197, 203, 204, 207, 206, 
** ... 64 like lines cut
*Element, type=U20,elset=AllEls
261, 451, 462, 454, 443, 461, 452, 455, 446, 463, 457, 458, 464, 453, 
444, 441, 445, 456, 447, 448, 442, 459, 449, 450, 460, 193, 194, 
197, 196, 202, 203, 206, 205, 139, 147, 188, 187, 388, 398, 392, 
400, 140, 148, 155, 189, 195, 198, 204, 207, 396, 402, 156, 191, 
190, 200, 199, 192, 201, 209, 208, 210, 211, 212, 215, 214, 386, 
390, 213, 216, 394, 218, 217, 219
262, 443, 454, 463, 457, 461, 451, 452, 462, 464, 455, 446, 458, 453, 
444, 441, 445, 456, 447, 459, 449, 460, 448, 442, 450, 193, 194, 
197, 196, 202, 203, 206, 205, 139, 147, 188, 187, 388, 398, 392, 
400, 140, 148, 155, 189, 195, 198, 204, 207, 396, 402, 156, 191, 
190, 200, 199, 192, 201, 209, 208, 210, 211, 212, 215, 214, 386, 
390, 213, 216, 394, 218, 217, 219
263, 457, 463, 443, 454, 452, 464, 446, 458, 441, 447, 459, 449, 445, 
460, 442, 450, 196, 197, 200, 199, 205, 206, 209, 208, 139, 147, 
188, 187, 193, 194, 191, 190, 202, 203, 155, 189, 195, 198, 192, 
201, 204, 207, 210, 433, 280, 436, 282, 407, 408, 414, 284, 409, 
278, 440, 430, 277, 184, 404, 211, 212, 215, 214, 218, 217, 213, 
216, 219, 279, 281, 283, 275, 276
264, 462, 455, 446, 454, 451, 443, 481, 478, 482, 458, 463, 457, 444, 
456, 447, 441, 448, 442, 479, 477, 480, 450, 459, 449, 194, 195, 
** ... 76 like lines cut
*Element, type=U21,elset=AllEls
277, 452, 443, 457, 464, 454, 463, 196, 197, 200, 199, 205, 206, 209, 
208, 139, 147, 188, 187, 193, 194, 191, 190, 202, 203, 155, 189, 
195, 198, 192, 201, 204, 207, 210, 433, 280, 436, 282, 407, 408, 
414, 284, 409, 278, 440, 430, 277, 184, 404, 211, 212, 215, 214, 
218, 217, 213, 216, 219, 279, 281, 283, 275, 276
278, 464, 457, 463, 460, 449, 459, 196, 197, 200, 199, 205, 206, 209, 
208, 139, 147, 188, 187, 193, 194, 191, 190, 202, 203, 155, 189, 
195, 198, 192, 201, 204, 207, 210, 433, 280, 436, 282, 407, 408, 
414, 284, 409, 278, 440, 430, 277, 184, 404, 211, 212, 215, 214, 
218, 217, 213, 216, 219, 279, 281, 283, 275, 276
279, 446, 478, 482, 458, 454, 463, 197, 198, 201, 200, 206, 207, 210, 
209, 139, 147, 188, 187, 193, 194, 196, 155, 189, 195, 191, 190, 
199, 192, 202, 203, 205, 204, 208, 186, 412, 413, 406, 414, 409, 
288, 287, 284, 436, 282, 408, 433, 280, 407, 211, 212, 215, 214, 
213, 216, 218, 217, 219, 281, 283, 285, 286, 279
280, 463, 458, 482, 459, 450, 480, 197, 198, 201, 200, 206, 207, 210, 
209, 139, 147, 188, 187, 193, 194, 196, 155, 189, 195, 191, 190, 
199, 192, 202, 203, 205, 204, 208, 186, 412, 413, 406, 414, 409, 
288, 287, 284, 436, 282, 408, 433, 280, 407, 211, 212, 215, 214, 
213, 216, 218, 217, 219, 281, 283, 285, 286, 279
** ... 40 like lines cut
*Element, type=U22,elset=AllEls
289, 443, 454, 463, 457, 452, 464, 446, 458, 196, 197, 200, 199, 205, 
206, 209, 208, 139, 147, 188, 187, 193, 194, 191, 190, 202, 203, 
155, 189, 195, 198, 192, 201, 204, 207, 210, 433, 280, 436, 282, 
407, 408, 414, 284, 409, 278, 440, 430, 277, 184, 404, 211, 212, 
215, 214, 218, 217, 213, 216, 219, 279, 281, 283, 275, 276
290, 464, 457, 463, 458, 460, 449, 459, 450, 196, 197, 200, 199, 205, 
206, 209, 208, 139, 147, 188, 187, 193, 194, 191, 190, 202, 203, 
155, 189, 195, 198, 192, 201, 204, 207, 210, 433, 280, 436, 282, 
407, 408, 414, 284, 409, 278, 440, 430, 277, 184, 404, 211, 212, 
215, 214, 218, 217, 213, 216, 219, 279, 281, 283, 275, 276
291, 443, 454, 463, 457, 446, 458, 478, 482, 197, 198, 201, 200, 206, 
207, 210, 209, 139, 147, 188, 187, 193, 194, 196, 155, 189, 195, 
191, 190, 199, 192, 202, 203, 205, 204, 208, 186, 412, 413, 406, 
414, 409, 288, 287, 284, 436, 282, 408, 433, 280, 407, 211, 212, 
215, 214, 213, 216, 218, 217, 219, 281, 283, 285, 286, 279
292, 457, 463, 458, 482, 449, 459, 450, 480, 197, 198, 201, 200, 206, 
207, 210, 209, 139, 147, 188, 187, 193, 194, 196, 155, 189, 195, 
191, 190, 199, 192, 202, 203, 205, 204, 208, 186, 412, 413, 406, 
414, 409, 288, 287, 284, 436, 282, 408, 433, 280, 407, 211, 212, 
215, 214, 213, 216, 218, 217, 219, 281, 283, 285, 286, 279
** ... 30 like lines cut
*Element, type=U23,elset=AllEls
299, 464, 457, 463, 196, 197, 200, 199, 205, 206, 209, 208, 139, 147, 
188, 187, 193, 194, 191, 190, 202, 203, 155, 189, 195, 198, 192, 
201, 204, 207, 210, 433, 280, 436, 282, 407, 408, 414, 284, 409, 
278, 440, 430, 277, 184, 404, 211, 212, 215, 214, 218, 217, 213, 
216, 219, 279, 281, 283, 275, 276
300, 463, 458, 482, 197, 198, 201, 200, 206, 207, 210, 209, 139, 147, 
188, 187, 193, 194, 196, 155, 189, 195, 191, 190, 199, 192, 202, 
203, 205, 204, 208, 186, 412, 413, 406, 414, 409, 288, 287, 284, 
436, 282, 408, 433, 280, 407, 211, 212, 215, 214, 213, 216, 218, 
217, 219, 281, 283, 285, 286, 279
301, 476, 471, 475, 214, 215, 218, 217, 220, 221, 224, 223, 202, 203, 
206, 205, 211, 212, 209, 208, 94, 100, 204, 207, 213, 216, 210, 
219, 106, 222, 225, 252, 279, 255, 281, 280, 282, 258, 283, 284, 
248, 249, 276, 275, 278, 277, 95, 101, 227, 226, 230, 229, 107, 
228, 231, 251, 254, 257, 246, 247
302, 475, 472, 485, 215, 216, 219, 218, 221, 222, 225, 224, 202, 203, 
206, 205, 211, 212, 214, 204, 207, 213, 209, 208, 217, 210, 94, 
100, 220, 106, 223, 255, 281, 258, 283, 282, 284, 263, 264, 286, 
285, 288, 287, 252, 279, 280, 95, 101, 227, 226, 107, 228, 230, 
229, 231, 254, 257, 261, 262, 251
*Element, type=U24,elset=AllEls
303, 464, 457, 452, 443, 454, 463, 445, 441, 449, 460, 447, 459, 196, 
197, 200, 199, 205, 206, 209, 208, 139, 147, 188, 187, 193, 194, 
191, 190, 202, 203, 155, 189, 195, 198, 192, 201, 204, 207, 210, 
433, 280, 436, 282, 407, 408, 414, 284, 409, 278, 440, 430, 277, 
184, 404, 211, 212, 215, 214, 218, 217, 213, 216, 219, 279, 281, 
283, 275, 276
304, 464, 457, 463, 460, 449, 459, 458, 450, 476, 471, 475, 472, 205, 
206, 209, 208, 214, 215, 218, 217, 193, 194, 197, 196, 202, 203, 
200, 199, 211, 212, 195, 198, 204, 207, 201, 210, 213, 216, 219, 
279, 280, 281, 282, 283, 284, 433, 436, 414, 275, 276, 278, 277, 
440, 430, 94, 100, 221, 220, 224, 223, 106, 222, 225, 252, 255, 
258, 248, 249
305, 464, 457, 460, 449, 463, 459, 476, 471, 475, 458, 450, 472, 205, 
206, 209, 208, 214, 215, 218, 217, 193, 194, 197, 196, 202, 203, 
200, 199, 211, 212, 195, 198, 204, 207, 201, 210, 213, 216, 219, 
279, 280, 281, 282, 283, 284, 433, 436, 414, 275, 276, 278, 277, 
440, 430, 94, 100, 221, 220, 224, 223, 106, 222, 225, 252, 255, 
258, 248, 249
306, 458, 482, 446, 478, 454, 463, 442, 477, 480, 450, 447, 459, 197, 
198, 201, 200, 206, 207, 210, 209, 139, 147, 188, 187, 193, 194, 
** ... 28 like lines cut
*Element, type=U25,elset=AllEls
311, 461, 451, 443, 452, 453, 444, 441, 445, 462, 454, 456, 447, 463, 
457, 464, 459, 449, 460, 473, 467, 465, 468, 474, 469, 475, 471, 
476, 202, 203, 206, 205, 211, 212, 215, 214, 193, 194, 197, 196, 
386, 388, 390, 392, 398, 400, 195, 198, 204, 207, 213, 216, 394, 
396, 402, 200, 199, 209, 208, 201, 210, 218, 217, 219, 94, 100, 
221, 220, 122, 126, 106, 222, 130, 224, 223, 225
312, 452, 443, 457, 464, 445, 441, 449, 460, 461, 451, 453, 444, 462, 
454, 463, 456, 447, 459, 473, 467, 465, 468, 471, 476, 474, 469, 
475, 202, 203, 206, 205, 211, 212, 215, 214, 193, 194, 197, 196, 
386, 388, 390, 392, 398, 400, 195, 198, 204, 207, 213, 216, 394, 
396, 402, 200, 199, 209, 208, 201, 210, 218, 217, 219, 94, 100, 
221, 220, 122, 126, 106, 222, 130, 224, 223, 225
313, 453, 444, 441, 445, 473, 467, 465, 468, 461, 451, 443, 452, 462, 
454, 456, 447, 474, 469, 463, 457, 459, 449, 464, 460, 475, 471, 
476, 202, 203, 206, 205, 211, 212, 215, 214, 193, 194, 197, 196, 
386, 388, 390, 392, 398, 400, 195, 198, 204, 207, 213, 216, 394, 
396, 402, 200, 199, 209, 208, 201, 210, 218, 217, 219, 94, 100, 
221, 220, 122, 126, 106, 222, 130, 224, 223, 225
314, 445, 441, 449, 460, 468, 465, 471, 476, 461, 451, 443, 452, 453, 
444, 457, 464, 473, 467, 462, 454, 456, 447, 463, 459, 474, 469, 
** ... 28 like lines cut
*Element, type=U26,elset=AllEls
319, 451, 462, 454, 443, 444, 456, 447, 441, 461, 452, 453, 445, 455, 
446, 448, 442, 463, 457, 459, 449, 458, 450, 464, 460, 473, 467, 
465, 468, 474, 469, 470, 466, 475, 471, 472, 476, 202, 203, 206, 
205, 211, 212, 215, 214, 193, 194, 197, 196, 386, 388, 390, 392, 
398, 400, 195, 198, 204, 207, 213, 216, 394, 396, 402, 200, 199, 
209, 208, 201, 210, 218, 217, 219, 94, 100, 221, 220, 122, 126, 
106, 222, 130, 224, 223, 225
320, 443, 454, 463, 457, 441, 447, 459, 449, 461, 451, 452, 462, 464, 
453, 444, 445, 456, 460, 455, 446, 458, 448, 442, 450, 473, 467, 
465, 468, 474, 469, 475, 471, 476, 470, 466, 472, 202, 203, 206, 
205, 211, 212, 215, 214, 193, 194, 197, 196, 386, 388, 390, 392, 
398, 400, 195, 198, 204, 207, 213, 216, 394, 396, 402, 200, 199, 
209, 208, 201, 210, 218, 217, 219, 94, 100, 221, 220, 122, 126, 
106, 222, 130, 224, 223, 225
321, 444, 456, 447, 441, 467, 474, 469, 465, 461, 451, 443, 452, 453, 
445, 462, 454, 473, 468, 455, 446, 448, 442, 470, 466, 463, 457, 
459, 449, 475, 471, 458, 450, 472, 464, 460, 476, 202, 203, 206, 
205, 211, 212, 215, 214, 193, 194, 197, 196, 386, 388, 390, 392, 
398, 400, 195, 198, 204, 207, 213, 216, 394, 396, 402, 200, 199, 
209, 208, 201, 210, 218, 217, 219, 94, 100, 221, 220, 122, 126, 
** ... 36 like lines cut
*Element, type=U27,elset=AllEls
327, 464, 457, 460, 449, 452, 443, 445, 441, 454, 463, 447, 459, 468, 
465, 471, 476, 469, 475, 205, 206, 209, 208, 214, 215, 218, 217, 
193, 194, 197, 196, 202, 203, 200, 199, 211, 212, 195, 198, 204, 
207, 201, 210, 213, 216, 219, 279, 280, 281, 282, 283, 284, 433, 
436, 414, 275, 276, 278, 277, 440, 430, 94, 100, 221, 220, 224, 
223, 106, 222, 225, 252, 255, 258, 248, 249
328, 460, 449, 476, 471, 452, 443, 457, 464, 445, 441, 468, 465, 454, 
463, 447, 459, 469, 475, 205, 206, 209, 208, 214, 215, 218, 217, 
193, 194, 197, 196, 202, 203, 200, 199, 211, 212, 195, 198, 204, 
207, 201, 210, 213, 216, 219, 279, 280, 281, 282, 283, 284, 433, 
436, 414, 275, 276, 278, 277, 440, 430, 94, 100, 221, 220, 224, 
223, 106, 222, 225, 252, 255, 258, 248, 249
329, 458, 482, 450, 480, 446, 478, 454, 463, 442, 477, 447, 459, 466, 
483, 485, 472, 469, 475, 206, 207, 210, 209, 215, 216, 219, 218, 
193, 194, 197, 196, 202, 203, 205, 195, 198, 204, 200, 199, 208, 
201, 211, 212, 214, 213, 217, 281, 282, 283, 284, 285, 286, 288, 
287, 412, 413, 414, 436, 279, 280, 433, 94, 100, 221, 220, 106, 
222, 224, 223, 225, 255, 258, 263, 264, 252
330, 450, 480, 472, 485, 446, 478, 482, 458, 442, 477, 454, 463, 447, 
459, 466, 483, 469, 475, 206, 207, 210, 209, 215, 216, 219, 218, 
** ... 4 like lines cut
*Element, type=U28,elset=AllEls
331, 457, 463, 449, 459, 443, 454, 452, 464, 441, 447, 445, 460, 446, 
458, 442, 450, 465, 469, 475, 471, 468, 476, 466, 472, 205, 206, 
209, 208, 214, 215, 218, 217, 193, 194, 197, 196, 202, 203, 200, 
199, 211, 212, 195, 198, 204, 207, 201, 210, 213, 216, 219, 279, 
280, 281, 282, 283, 284, 433, 436, 414, 275, 276, 278, 277, 440, 
430, 94, 100, 221, 220, 224, 223, 106, 222, 225, 252, 255, 258, 
248, 249
332, 449, 459, 471, 475, 443, 454, 463, 457, 441, 447, 452, 464, 445, 
460, 465, 469, 468, 476, 446, 458, 442, 450, 466, 472, 205, 206, 
209, 208, 214, 215, 218, 217, 193, 194, 197, 196, 202, 203, 200, 
199, 211, 212, 195, 198, 204, 207, 201, 210, 213, 216, 219, 279, 
280, 281, 282, 283, 284, 433, 436, 414, 275, 276, 278, 277, 440, 
430, 94, 100, 221, 220, 224, 223, 106, 222, 225, 252, 255, 258, 
248, 249
333, 463, 458, 459, 450, 443, 454, 457, 441, 447, 449, 446, 442, 478, 
482, 477, 480, 465, 469, 475, 471, 466, 472, 483, 485, 206, 207, 
210, 209, 215, 216, 219, 218, 193, 194, 197, 196, 202, 203, 205, 
195, 198, 204, 200, 199, 208, 201, 211, 212, 214, 213, 217, 281, 
282, 283, 284, 285, 286, 288, 287, 412, 413, 414, 436, 279, 280, 
433, 94, 100, 221, 220, 106, 222, 224, 223, 225, 255, 258, 263, 
** ... 8 like lines cut
*Element, type=U29,elset=AllEls
335, 464, 457, 460, 449, 463, 459, 476, 471, 475, 205, 206, 209, 208, 
214, 215, 218, 217, 193, 194, 197, 196, 202, 203, 200, 199, 211, 
212, 195, 198, 204, 207, 201, 210, 213, 216, 219, 279, 280, 281, 
282, 283, 284, 433, 436, 414, 275, 276, 278, 277, 440, 430, 94, 
100, 221, 220, 224, 223, 106, 222, 225, 252, 255, 258, 248, 249

336, 464, 457, 460, 449, 476, 471, 463, 459, 475, 205, 206, 209, 208, 
214, 215, 218, 217, 193, 194, 197, 196, 202, 203, 200, 199, 211, 
212, 195, 198, 204, 207, 201, 210, 213, 216, 219, 279, 280, 281, 
282, 283, 284, 433, 436, 414, 275, 276, 278, 277, 440, 430, 94, 
100, 221, 220, 224, 223, 106, 222, 225, 252, 255, 258, 248, 249

337, 463, 458, 482, 459, 450, 480, 475, 472, 485, 206, 207, 210, 209, 
215, 216, 219, 218, 193, 194, 197, 196, 202, 203, 205, 195, 198, 
204, 200, 199, 208, 201, 211, 212, 214, 213, 217, 281, 282, 283, 
284, 285, 286, 288, 287, 412, 413, 414, 436, 279, 280, 433, 94, 
100, 221, 220, 106, 222, 224, 223, 225, 255, 258, 263, 264, 252

338, 463, 458, 459, 450, 482, 480, 475, 472, 485, 206, 207, 210, 209, 
215, 216, 219, 218, 193, 194, 197, 196, 202, 203, 205, 195, 198, 
204, 200, 199, 208, 201, 211, 212, 214, 213, 217, 281, 282, 283, 
284, 285, 286, 288, 287, 412, 413, 414, 436, 279, 280, 433, 94, 
100, 221, 220, 106, 222, 224, 223, 225, 255, 258, 263, 264, 252

*Element, type=U30,elset=AllEls
339, 467, 474, 469, 465, 453, 444, 441, 445, 473, 468, 456, 447, 448, 
442, 470, 466, 459, 449, 475, 471, 450, 472, 460, 476, 211, 212, 
215, 214, 94, 100, 221, 220, 202, 203, 206, 205, 122, 386, 126, 
390, 388, 392, 204, 207, 213, 216, 106, 222, 130, 394, 396, 209, 
208, 218, 217, 210, 219, 224, 223, 225, 95, 98, 97, 101, 104, 
103, 124, 128, 227, 226, 107, 110, 109, 132, 228, 230, 229, 231

340, 465, 469, 475, 471, 453, 444, 441, 445, 473, 467, 468, 456, 447, 
474, 459, 449, 460, 476, 448, 442, 470, 466, 450, 472, 211, 212, 
215, 214, 94, 100, 221, 220, 202, 203, 206, 205, 122, 386, 126, 
390, 388, 392, 204, 207, 213, 216, 106, 222, 130, 394, 396, 209, 
208, 218, 217, 210, 219, 224, 223, 225, 95, 98, 97, 101, 104, 
103, 124, 128, 227, 226, 107, 110, 109, 132, 228, 230, 229, 231

341, 474, 470, 466, 469, 444, 456, 447, 441, 467, 465, 448, 442, 479, 
477, 484, 483, 480, 450, 485, 472, 459, 475, 449, 471, 212, 213, 
216, 215, 100, 106, 222, 221, 202, 203, 206, 205, 211, 214, 204, 
207, 94, 220, 122, 386, 126, 390, 388, 392, 130, 394, 396, 210, 
209, 219, 218, 225, 224, 208, 217, 223, 95, 98, 97, 101, 104, 
103, 107, 110, 109, 124, 128, 132, 227, 226, 228, 231, 230, 229

342, 469, 466, 472, 475, 444, 456, 447, 441, 467, 474, 465, 459, 449, 
471, 448, 442, 470, 450, 479, 477, 484, 483, 480, 485, 212, 213, 
216, 215, 100, 106, 222, 221, 202, 203, 206, 205, 211, 214, 204, 
207, 94, 220, 122, 386, 126, 390, 388, 392, 130, 394, 396, 210, 
209, 219, 218, 225, 224, 208, 217, 223, 95, 98, 97, 101, 104, 
103, 107, 110, 109, 124, 128, 132, 227, 226, 228, 231, 230, 229

*Element, type=U31,elset=AllEls
343, 473, 467, 465, 468, 474, 469, 475, 471, 476, 211, 212, 215, 214, 
94, 100, 221, 220, 202, 203, 206, 205, 122, 386, 126, 390, 388, 
392, 204, 207, 213, 216, 106, 222, 130, 394, 396, 209, 208, 218, 
217, 210, 219, 224, 223, 225, 95, 98, 97, 101, 104, 103, 124, 
128, 227, 226, 107, 110, 109, 132, 228, 230, 229, 231
344, 473, 467, 465, 468, 471, 476, 474, 469, 475, 211, 212, 215, 214, 
94, 100, 221, 220, 202, 203, 206, 205, 122, 386, 126, 390, 388, 
392, 204, 207, 213, 216, 106, 222, 130, 394, 396, 209, 208, 218, 
217, 210, 219, 224, 223, 225, 95, 98, 97, 101, 104, 103, 124, 
128, 227, 226, 107, 110, 109, 132, 228, 230, 229, 231
345, 474, 470, 466, 469, 484, 483, 485, 472, 475, 212, 213, 216, 215, 
100, 106, 222, 221, 202, 203, 206, 205, 211, 214, 204, 207, 94, 
220, 122, 386, 126, 390, 388, 392, 130, 394, 396, 210, 209, 219, 
218, 225, 224, 208, 217, 223, 95, 98, 97, 101, 104, 103, 107, 
110, 109, 124, 128, 132, 227, 226, 228, 231, 230, 229
346, 474, 470, 466, 469, 484, 483, 485, 472, 475, 212, 213, 216, 215, 
100, 106, 222, 221, 202, 203, 206, 205, 211, 214, 204, 207, 94, 
220, 122, 386, 126, 390, 388, 392, 130, 394, 396, 210, 209, 219, 
218, 225, 224, 208, 217, 223, 95, 98, 97, 101, 104, 103, 107, 
110, 109, 124, 128, 132, 227, 226, 228, 231, 230, 229
*Element, type=U32,elset=AllEls
347, 474, 470, 467, 484, 100, 126, 390, 212, 106, 130, 394, 213, 94, 
95, 98, 97, 101, 104, 103, 107, 110, 109, 122, 124, 128, 132, 
211, 215, 214, 221, 220, 216, 222, 227, 226, 228, 386, 121, 123, 
125, 127, 129, 131, 387, 391, 395, 388, 202, 392, 203, 389, 393, 
396, 204, 397, 206, 205, 207
348, 473, 467, 474, 470, 94, 122, 386, 211, 100, 126, 390, 212, 95, 
98, 97, 101, 104, 103, 124, 128, 215, 214, 221, 220, 227, 226, 
121, 123, 125, 127, 387, 391, 388, 202, 392, 203, 389, 393, 206, 
205, 106, 107, 110, 109, 130, 132, 213, 216, 222, 228, 394, 129, 
131, 395, 396, 204, 397, 207
*Element, type=U33,elset=AllEls
349, 474, 470, 467, 469, 465, 466, 456, 448, 444, 447, 441, 442, 484, 
483, 479, 477, 100, 126, 390, 212, 106, 130, 394, 213, 94, 95, 
98, 97, 101, 104, 103, 107, 110, 109, 122, 124, 128, 132, 211, 
215, 214, 221, 220, 216, 222, 227, 226, 228, 386, 121, 123, 125, 
127, 129, 131, 387, 391, 395, 388, 202, 392, 203, 389, 393, 396, 
204, 397, 206, 205, 207
350, 467, 474, 473, 465, 468, 469, 453, 444, 456, 441, 445, 447, 470, 
466, 448, 442, 94, 122, 386, 211, 100, 126, 390, 212, 95, 98, 
97, 101, 104, 103, 124, 128, 215, 214, 221, 220, 227, 226, 121, 
123, 125, 127, 387, 391, 388, 202, 392, 203, 389, 393, 206, 205, 
106, 107, 110, 109, 130, 132, 213, 216, 222, 228, 394, 129, 131, 
395, 396, 204, 397, 207
*ELSET,ELSET=EltPAtch1,generate
1, 350, 1
*UEL PROPERTY, ELSET=EltPAtch1
**---E11---|---v12---|----c1---|---c2----|---c3----|----c4---|----c5---|---c6----|
    100000,     0.3,     1.0e6,    6.0e1,   80.000,   0.2500,   0.9000,    2.239,
**
**---Y0----|----ep0--|---Y1----|----ep1--|---Y2----|----ep2--|---Y3----|----ep3--|
  1157.000,    0.000,   0.0000,   0.0100,1207.5147,  0.00000,1224.9017,   0.0500,
**
**---Y4----|----ep4--|---Y5----|----ep5--|---Y6----|----ep6--|---Y7----|----ep7--|
1252.362103,   0.0800,1270.5188,   0.1000,  1426.00,   0.3000,   1538.0,   0.6000,
**-------------------------> PROPS(28) | JPROPS(1)
**---fGT---|---fxC---|---Gxc---|---fGc---|-CohType-|--FtgMnt-|-psudo3D-|-VirtualE|
     0.4,      0.5,     65.0,      0.5,        2,        1,        0,        4, 
**-----------------------------> JPROPS(8)
** --NPLY--|--FaiCrt-|CDDC_NE_D|---------|
       1,        3,        0,        0
*End Part
*Assembly, name=Assembly
*Instance, name=I1, part=Piece
*End Instance
*End Assembly
*MATERIAL,NAME=MAT
*Elastic
100000, 0.3
**
** Modification (3): Add an amplitude definition
**
*amplitude, name=AMP1
0.0, 1.0, 1.0e6, 1.0
**
** Modification (4): Add a *Temperature line
**
*Temperature, amplitude=AMP1
I1.AllNode, 0.0
*node file, frequency=1
U,RF,CF
*el file, frequency=1
SDV
*End Step
