*HEADING
*Part, name=Piece
*USER ELEMENT, NODES=36, TYPE=U1, COORDINATES=3, variables=1404, I PROPERTIES=8, PROPERTIES=28
1,2,3
*USER ELEMENT, NODES=48, TYPE=U2, COORDINATES=3, variables=1872, I PROPERTIES=8, PROPERTIES=28
1,2,3
*USER ELEMENT, NODES=64, TYPE=U3, COORDINATES=3, variables=2496, I PROPERTIES=8, PROPERTIES=28
1,2,3
*USER ELEMENT, NODES=52, TYPE=U4, COORDINATES=3, variables=2028, I PROPERTIES=8, PROPERTIES=28
1,2,3
*USER ELEMENT, NODES=45, TYPE=U5, COORDINATES=3, variables=1755, I PROPERTIES=8, PROPERTIES=28
1,2,3
*USER ELEMENT, NODES=57, TYPE=U6, COORDINATES=3, variables=2223, I PROPERTIES=8, PROPERTIES=28
1,2,3
*USER ELEMENT, NODES=60, TYPE=U7, COORDINATES=3, variables=2340, I PROPERTIES=8, PROPERTIES=28
1,2,3
*USER ELEMENT, NODES=51, TYPE=U8, COORDINATES=3, variables=1989, I PROPERTIES=8, PROPERTIES=28
1,2,3
*USER ELEMENT, NODES=54, TYPE=U9, COORDINATES=3, variables=2106, I PROPERTIES=8, PROPERTIES=28
1,2,3
*USER ELEMENT, NODES=56, TYPE=U10, COORDINATES=3, variables=2184, I PROPERTIES=8, PROPERTIES=28
1,2,3
*USER ELEMENT, NODES=39, TYPE=U11, COORDINATES=3, variables=1521, I PROPERTIES=8, PROPERTIES=28
1,2,3
*USER ELEMENT, NODES=42, TYPE=U12, COORDINATES=3, variables=1638, I PROPERTIES=8, PROPERTIES=28
1,2,3
*USER ELEMENT, NODES=40, TYPE=U13, COORDINATES=3, variables=1560, I PROPERTIES=8, PROPERTIES=28
1,2,3
*USER ELEMENT, NODES=44, TYPE=U14, COORDINATES=3, variables=1716, I PROPERTIES=8, PROPERTIES=28
1,2,3
*USER ELEMENT, NODES=50, TYPE=U15, COORDINATES=3, variables=1950, I PROPERTIES=8, PROPERTIES=28
1,2,3
*USER ELEMENT, NODES=49, TYPE=U16, COORDINATES=3, variables=1911, I PROPERTIES=8, PROPERTIES=28
1,2,3
*Node,nset=AllNode
1,	13.8029,	20.3053,	30
2,	30,	30,	30
3,	13.8029,	20.3053,	0
4,	30,	30,	0
5,	6.94046,	20.3053,	30
6,	0,	30,	30
7,	6.94046,	20.3053,	0
8,	0,	30,	0
9,	0,	0,	0
10,	6.94046,	13.0316,	0
11,	0,	0,	30
12,	6.94046,	13.0316,	30
13,	30,	0,	30
14,	30,	0,	0
15,	13.8029,	13.0316,	30
16,	13.8029,	13.0316,	0
17,	22.3627,	25.5508,	30
18,	30,	30,	15
19,	22.3627,	25.5508,	0
20,	13.7408,	20.3629,	14.9996
** ... 405 like lines cut
*Element, type=U1,elset=AllEls
1, 1, 73, 77, 76, 78, 79, 86, 85, 130, 133, 134, 139, 17, 
74, 80, 81, 140, 143, 21, 75, 82, 83, 20, 84, 132, 138, 
142, 22, 87, 91, 90, 23, 88, 30, 89, 29
2, 8, 92, 96, 95, 97, 98, 105, 104, 210, 205, 206, 207, 36, 
93, 99, 100, 39, 94, 101, 102, 33, 103, 209, 208, 32, 106, 
110, 109, 200, 199, 40, 107, 45, 108, 35, 186
3, 11, 111, 115, 114, 116, 117, 124, 123, 261, 263, 264, 266, 50, 
112, 118, 119, 53, 113, 120, 121, 41, 122, 228, 230, 47, 125, 
129, 128, 262, 265, 54, 126, 59, 127, 42, 229
4, 1, 130, 133, 76, 73, 134, 139, 77, 78, 79, 86, 85, 64, 
131, 135, 136, 66, 132, 137, 138, 20, 75, 83, 84, 17, 74, 
80, 81, 140, 143, 67, 141, 69, 142, 21, 82
5, 22, 87, 91, 90, 182, 183, 190, 189, 78, 79, 86, 85, 80, 
81, 23, 88, 184, 185, 82, 83, 30, 89, 84, 29, 186, 187, 
188, 5, 191, 195, 194, 31, 192, 35, 193, 34
6, 36, 218, 221, 93, 99, 222, 227, 100, 92, 96, 98, 105, 9, 
219, 223, 224, 37, 220, 225, 226, 39, 101, 94, 102, 106, 40, 
107, 110, 228, 230, 41, 122, 42, 229, 45, 108
7, 64, 349, 351, 131, 135, 352, 354, 136, 130, 133, 134, 139, 15, 
332, 326, 327, 61, 350, 328, 353, 66, 137, 132, 138, 140, 67, 
** ... 160 like lines cut
*Element, type=U2,elset=AllEls
61, 17, 144, 147, 74, 80, 148, 153, 81, 140, 143, 374, 379, 73, 
77, 79, 86, 134, 139, 2, 145, 149, 150, 380, 383, 18, 146, 
151, 152, 21, 82, 142, 378, 382, 75, 83, 138, 87, 23, 88, 
91, 154, 157, 24, 155, 25, 156, 30, 89
62, 20, 75, 174, 173, 84, 83, 178, 177, 132, 369, 138, 371, 76, 
77, 85, 86, 133, 139, 74, 21, 81, 82, 143, 142, 160, 166, 
373, 19, 172, 165, 175, 3, 176, 368, 370, 372, 90, 91, 89, 
29, 181, 180, 88, 30, 170, 27, 179, 28
63, 23, 154, 157, 88, 184, 196, 201, 185, 79, 80, 81, 86, 87, 
91, 148, 153, 183, 190, 149, 150, 24, 155, 197, 198, 151, 152, 
25, 156, 82, 30, 199, 200, 186, 83, 89, 187, 191, 31, 192, 
195, 202, 204, 6, 203, 32, 109, 35, 193
64, 29, 89, 181, 180, 188, 187, 214, 213, 85, 86, 83, 84, 90, 
91, 178, 177, 189, 190, 81, 82, 88, 30, 166, 170, 185, 186, 
209, 165, 175, 27, 179, 176, 28, 208, 211, 212, 194, 195, 193, 
34, 217, 216, 192, 35, 103, 33, 215, 7
65, 39, 220, 234, 233, 101, 226, 240, 239, 96, 93, 94, 105, 100, 
102, 221, 227, 246, 248, 219, 37, 224, 225, 231, 235, 10, 232, 
236, 237, 38, 238, 245, 247, 110, 107, 45, 108, 230, 229, 244, 
243, 250, 122, 42, 241, 43, 242, 44, 249
** ... 492 like lines cut
*Element, type=U3,elset=AllEls
189, 21, 146, 161, 160, 82, 152, 167, 166, 142, 373, 378, 398, 77, 
74, 75, 86, 81, 83, 139, 138, 143, 147, 153, 174, 178, 371, 
379, 145, 18, 150, 151, 158, 162, 383, 382, 400, 4, 159, 163, 
164, 19, 165, 372, 397, 399, 172, 175, 370, 91, 88, 30, 89, 
157, 156, 171, 170, 181, 155, 25, 168, 26, 169, 27, 179
190, 30, 156, 171, 170, 186, 200, 210, 209, 86, 81, 82, 83, 91, 
88, 89, 153, 152, 157, 167, 166, 178, 181, 190, 185, 187, 201, 
214, 150, 151, 155, 25, 162, 168, 198, 199, 205, 163, 164, 26, 
169, 165, 27, 206, 207, 208, 175, 179, 211, 195, 192, 35, 193, 
204, 109, 104, 103, 217, 203, 32, 97, 8, 95, 33, 215
191, 45, 229, 244, 243, 254, 262, 272, 271, 105, 100, 101, 102, 110, 
107, 108, 227, 226, 230, 240, 239, 248, 250, 256, 253, 255, 263, 
278, 224, 225, 122, 42, 235, 241, 123, 128, 267, 236, 237, 43, 
242, 238, 44, 268, 269, 270, 247, 249, 277, 260, 258, 49, 259, 
266, 265, 276, 275, 280, 116, 47, 273, 12, 274, 48, 279
192, 35, 108, 250, 193, 192, 255, 278, 195, 104, 105, 102, 103, 109, 
110, 190, 185, 186, 187, 201, 200, 204, 210, 209, 214, 217, 248, 
256, 100, 101, 107, 45, 239, 243, 253, 254, 271, 238, 247, 44, 
249, 216, 34, 270, 277, 194, 189, 188, 213, 183, 184, 191, 31, 
196, 202, 260, 259, 280, 258, 49, 275, 48, 279, 5, 182
** ... 320 like lines cut
*Element, type=U4,elset=AllEls
257, 406, 414, 402, 408, 413, 407, 405, 401, 410, 403, 409, 404, 415, 
411, 416, 412, 384, 286, 287, 386, 387, 13, 282, 389, 67, 355, 
357, 141, 375, 376, 55, 292, 70, 381, 281, 284, 285, 290, 291, 
294, 51, 283, 288, 289, 56, 293, 356, 385, 388, 69, 377, 72

258, 413, 406, 407, 402, 414, 408, 405, 401, 410, 403, 409, 404, 415, 
411, 416, 412, 384, 286, 287, 386, 387, 13, 282, 389, 67, 355, 
357, 141, 375, 376, 55, 292, 70, 381, 281, 284, 285, 290, 291, 
294, 51, 283, 288, 289, 56, 293, 356, 385, 388, 69, 377, 72

259, 403, 408, 409, 414, 423, 412, 421, 416, 424, 406, 402, 411, 422, 
404, 410, 401, 281, 13, 282, 284, 285, 286, 287, 290, 50, 112, 
118, 119, 384, 386, 387, 389, 51, 283, 288, 289, 385, 388, 53, 
120, 54, 291, 294, 126, 55, 292, 355, 357, 56, 293, 356, 59

260, 423, 412, 421, 403, 416, 408, 424, 409, 414, 406, 402, 411, 422, 
404, 410, 401, 281, 13, 282, 284, 285, 286, 287, 290, 50, 112, 
118, 119, 384, 386, 387, 389, 51, 283, 288, 289, 385, 388, 53, 
120, 54, 291, 294, 126, 55, 292, 355, 357, 56, 293, 356, 59

261, 419, 417, 420, 418, 352, 326, 327, 354, 355, 55, 292, 357, 64, 
349, 351, 131, 135, 136, 15, 332, 67, 141, 291, 294, 325, 330, 
331, 334, 56, 293, 328, 329, 61, 333, 350, 353, 356, 66, 137, 
69, 375, 384, 386, 376, 286, 287, 285, 290, 288, 289, 385, 377

262, 419, 417, 420, 418, 352, 326, 327, 354, 355, 55, 292, 357, 64, 
349, 351, 131, 135, 136, 15, 332, 67, 141, 291, 294, 325, 330, 
331, 334, 56, 293, 328, 329, 61, 333, 350, 353, 356, 66, 137, 
69, 375, 384, 386, 376, 286, 287, 285, 290, 288, 289, 385, 377

263, 425, 418, 420, 417, 291, 55, 292, 294, 325, 326, 327, 330, 54, 
126, 316, 317, 118, 285, 290, 119, 286, 287, 352, 354, 355, 357, 
384, 386, 288, 289, 56, 293, 328, 329, 353, 356, 385, 120, 59, 
318, 60, 331, 334, 322, 15, 332, 349, 351, 61, 333, 350, 63

264, 425, 418, 420, 417, 291, 55, 292, 294, 325, 326, 327, 330, 54, 
126, 316, 317, 118, 285, 290, 119, 286, 287, 352, 354, 355, 357, 
384, 386, 288, 289, 56, 293, 328, 329, 353, 356, 385, 120, 59, 
318, 60, 331, 334, 322, 15, 332, 349, 351, 61, 333, 350, 63

265, 424, 422, 421, 425, 118, 285, 290, 119, 54, 291, 294, 126, 50, 
281, 284, 112, 111, 115, 117, 124, 125, 129, 13, 282, 286, 287, 
55, 292, 51, 283, 288, 289, 53, 120, 56, 293, 59, 113, 121, 
127, 316, 325, 330, 317, 315, 320, 326, 327, 328, 329, 318, 319

266, 424, 422, 421, 425, 118, 285, 290, 119, 54, 291, 294, 126, 50, 
281, 284, 112, 111, 115, 117, 124, 125, 129, 13, 282, 286, 287, 
55, 292, 51, 283, 288, 289, 53, 120, 56, 293, 59, 113, 121, 
127, 316, 325, 330, 317, 315, 320, 326, 327, 328, 329, 318, 319

267, 419, 405, 413, 407, 67, 355, 357, 141, 375, 384, 386, 376, 134, 
135, 136, 139, 140, 143, 352, 354, 374, 379, 326, 327, 55, 292, 
286, 287, 328, 353, 56, 356, 137, 69, 288, 385, 377, 138, 142, 
378, 380, 70, 381, 383, 387, 389, 13, 282, 51, 388, 72, 382

268, 419, 405, 413, 407, 67, 355, 357, 141, 375, 384, 386, 376, 134, 
135, 136, 139, 140, 143, 352, 354, 374, 379, 326, 327, 55, 292, 
286, 287, 328, 353, 56, 356, 137, 69, 288, 385, 377, 138, 142, 
378, 380, 70, 381, 383, 387, 389, 13, 282, 51, 388, 72, 382

269, 425, 422, 404, 418, 54, 291, 294, 126, 316, 325, 330, 317, 117, 
118, 119, 124, 125, 129, 285, 290, 315, 320, 286, 287, 55, 292, 
326, 327, 288, 289, 56, 293, 120, 59, 328, 329, 318, 121, 127, 
319, 321, 60, 322, 324, 331, 334, 15, 332, 61, 333, 63, 323

270, 422, 425, 404, 418, 54, 291, 294, 126, 316, 325, 330, 317, 117, 
118, 119, 124, 125, 129, 285, 290, 315, 320, 286, 287, 55, 292, 
326, 327, 288, 289, 56, 293, 120, 59, 328, 329, 318, 121, 127, 
319, 321, 60, 322, 324, 331, 334, 15, 332, 61, 333, 63, 323

271, 419, 417, 405, 401, 135, 352, 354, 136, 67, 355, 357, 141, 64, 
349, 351, 131, 130, 133, 134, 139, 140, 143, 15, 332, 326, 327, 
55, 292, 61, 350, 328, 353, 66, 137, 56, 356, 69, 132, 138, 
142, 375, 384, 386, 376, 374, 379, 286, 287, 288, 385, 377, 378

272, 419, 417, 405, 401, 135, 352, 354, 136, 67, 355, 357, 141, 64, 
349, 351, 131, 130, 133, 134, 139, 140, 143, 15, 332, 326, 327, 
55, 292, 61, 350, 328, 353, 66, 137, 56, 356, 69, 132, 138, 
142, 375, 384, 386, 376, 374, 379, 286, 287, 288, 385, 377, 378

*Element, type=U5,elset=AllEls
273, 407, 402, 415, 411, 413, 406, 414, 408, 416, 384, 286, 287, 386, 
387, 13, 282, 389, 67, 355, 357, 141, 375, 376, 55, 292, 70, 
381, 281, 284, 285, 290, 291, 294, 51, 283, 288, 289, 56, 293, 
356, 385, 388, 69, 377, 72
274, 413, 406, 407, 402, 415, 411, 414, 408, 416, 384, 286, 287, 386, 
387, 13, 282, 389, 67, 355, 357, 141, 375, 376, 55, 292, 70, 
381, 281, 284, 285, 290, 291, 294, 51, 283, 288, 289, 56, 293, 
356, 385, 388, 69, 377, 72
275, 423, 412, 421, 403, 416, 408, 424, 409, 414, 281, 13, 282, 284, 
285, 286, 287, 290, 50, 112, 118, 119, 384, 386, 387, 389, 51, 
283, 288, 289, 385, 388, 53, 120, 54, 291, 294, 126, 55, 292, 
355, 357, 56, 293, 356, 59
276, 423, 412, 421, 403, 416, 408, 424, 409, 414, 281, 13, 282, 284, 
285, 286, 287, 290, 50, 112, 118, 119, 384, 386, 387, 389, 51, 
283, 288, 289, 385, 388, 53, 120, 54, 291, 294, 126, 55, 292, 
355, 357, 56, 293, 356, 59
*Element, type=U6,elset=AllEls
277, 419, 417, 405, 401, 420, 410, 413, 406, 414, 355, 55, 292, 357, 
384, 286, 287, 386, 67, 141, 375, 376, 135, 352, 354, 136, 326, 
327, 285, 290, 291, 294, 325, 330, 288, 289, 56, 293, 328, 329, 
353, 356, 385, 137, 69, 377, 70, 387, 389, 381, 13, 282, 281, 
284, 51, 283, 388, 72
278, 419, 417, 405, 401, 420, 410, 413, 406, 414, 355, 55, 292, 357, 
384, 286, 287, 386, 67, 141, 375, 376, 135, 352, 354, 136, 326, 
327, 285, 290, 291, 294, 325, 330, 288, 289, 56, 293, 328, 329, 
353, 356, 385, 137, 69, 377, 70, 387, 389, 381, 13, 282, 281, 
284, 51, 283, 388, 72
279, 422, 404, 425, 418, 424, 409, 414, 410, 420, 285, 286, 287, 290, 
291, 55, 292, 294, 50, 281, 284, 112, 118, 119, 13, 282, 54, 
126, 355, 357, 384, 386, 387, 389, 51, 283, 288, 289, 56, 293, 
356, 385, 388, 53, 120, 59, 316, 325, 330, 317, 326, 327, 352, 
354, 328, 329, 353, 318
280, 424, 409, 422, 404, 425, 418, 414, 410, 420, 285, 286, 287, 290, 
291, 55, 292, 294, 50, 281, 284, 112, 118, 119, 13, 282, 54, 
126, 355, 357, 384, 386, 387, 389, 51, 283, 288, 289, 56, 293, 
356, 385, 388, 53, 120, 59, 316, 325, 330, 317, 326, 327, 352, 
354, 328, 329, 353, 318
*Element, type=U7,elset=AllEls
281, 417, 420, 401, 410, 419, 405, 404, 418, 413, 406, 414, 409, 355, 
55, 292, 357, 384, 286, 287, 386, 67, 141, 375, 376, 135, 352, 
354, 136, 326, 327, 285, 290, 291, 294, 325, 330, 288, 289, 56, 
293, 328, 329, 353, 356, 385, 137, 69, 377, 70, 387, 389, 381, 
13, 282, 281, 284, 51, 283, 388, 72
282, 419, 417, 405, 401, 420, 410, 404, 418, 413, 406, 414, 409, 355, 
55, 292, 357, 384, 286, 287, 386, 67, 141, 375, 376, 135, 352, 
354, 136, 326, 327, 285, 290, 291, 294, 325, 330, 288, 289, 56, 
293, 328, 329, 353, 356, 385, 137, 69, 377, 70, 387, 389, 381, 
13, 282, 281, 284, 51, 283, 388, 72
283, 405, 401, 413, 406, 419, 417, 420, 410, 414, 407, 402, 408, 355, 
55, 292, 357, 384, 286, 287, 386, 67, 141, 375, 376, 135, 352, 
354, 136, 326, 327, 285, 290, 291, 294, 325, 330, 288, 289, 56, 
293, 328, 329, 353, 356, 385, 137, 69, 377, 70, 387, 389, 381, 
13, 282, 281, 284, 51, 283, 388, 72
284, 419, 417, 405, 401, 413, 406, 420, 410, 414, 407, 402, 408, 355, 
55, 292, 357, 384, 286, 287, 386, 67, 141, 375, 376, 135, 352, 
354, 136, 326, 327, 285, 290, 291, 294, 325, 330, 288, 289, 56, 
293, 328, 329, 353, 356, 385, 137, 69, 377, 70, 387, 389, 381, 
13, 282, 281, 284, 51, 283, 388, 72
** ... 20 like lines cut
*Element, type=U8,elset=AllEls
289, 419, 417, 420, 352, 326, 327, 354, 355, 55, 292, 357, 64, 349, 
351, 131, 135, 136, 15, 332, 67, 141, 291, 294, 325, 330, 331, 
334, 56, 293, 328, 329, 61, 333, 350, 353, 356, 66, 137, 69, 
375, 384, 386, 376, 286, 287, 285, 290, 288, 289, 385, 377
290, 419, 417, 420, 352, 326, 327, 354, 355, 55, 292, 357, 64, 349, 
351, 131, 135, 136, 15, 332, 67, 141, 291, 294, 325, 330, 331, 
334, 56, 293, 328, 329, 61, 333, 350, 353, 356, 66, 137, 69, 
375, 384, 386, 376, 286, 287, 285, 290, 288, 289, 385, 377
291, 425, 418, 420, 291, 55, 292, 294, 325, 326, 327, 330, 54, 126, 
316, 317, 118, 285, 290, 119, 286, 287, 352, 354, 355, 357, 384, 
386, 288, 289, 56, 293, 328, 329, 353, 356, 385, 120, 59, 318, 
60, 331, 334, 322, 15, 332, 349, 351, 61, 333, 350, 63
292, 425, 418, 420, 291, 55, 292, 294, 325, 326, 327, 330, 54, 126, 
316, 317, 118, 285, 290, 119, 286, 287, 352, 354, 355, 357, 384, 
386, 288, 289, 56, 293, 328, 329, 353, 356, 385, 120, 59, 318, 
60, 331, 334, 322, 15, 332, 349, 351, 61, 333, 350, 63
293, 424, 422, 425, 118, 285, 290, 119, 54, 291, 294, 126, 50, 281, 
284, 112, 111, 115, 117, 124, 125, 129, 13, 282, 286, 287, 55, 
292, 51, 283, 288, 289, 53, 120, 56, 293, 59, 113, 121, 127, 
316, 325, 330, 317, 315, 320, 326, 327, 328, 329, 318, 319
** ... 12 like lines cut
*Element, type=U9,elset=AllEls
297, 419, 417, 420, 405, 401, 410, 352, 326, 327, 354, 355, 55, 292, 
357, 64, 349, 351, 131, 135, 136, 15, 332, 67, 141, 291, 294, 
325, 330, 331, 334, 56, 293, 328, 329, 61, 333, 350, 353, 356, 
66, 137, 69, 375, 384, 386, 376, 286, 287, 285, 290, 288, 289, 
385, 377
298, 419, 417, 420, 405, 401, 410, 352, 326, 327, 354, 355, 55, 292, 
357, 64, 349, 351, 131, 135, 136, 15, 332, 67, 141, 291, 294, 
325, 330, 331, 334, 56, 293, 328, 329, 61, 333, 350, 353, 356, 
66, 137, 69, 375, 384, 386, 376, 286, 287, 285, 290, 288, 289, 
385, 377
299, 425, 418, 422, 404, 410, 420, 291, 55, 292, 294, 325, 326, 327, 
330, 54, 126, 316, 317, 118, 285, 290, 119, 286, 287, 352, 354, 
355, 357, 384, 386, 288, 289, 56, 293, 328, 329, 353, 356, 385, 
120, 59, 318, 60, 331, 334, 322, 15, 332, 349, 351, 61, 333, 
350, 63
300, 422, 404, 425, 418, 410, 420, 291, 55, 292, 294, 325, 326, 327, 
330, 54, 126, 316, 317, 118, 285, 290, 119, 286, 287, 352, 354, 
355, 357, 384, 386, 288, 289, 56, 293, 328, 329, 353, 356, 385, 
120, 59, 318, 60, 331, 334, 322, 15, 332, 349, 351, 61, 333, 
350, 63
** ... 20 like lines cut
*Element, type=U10,elset=AllEls
305, 417, 420, 419, 418, 405, 401, 410, 404, 352, 326, 327, 354, 355, 
55, 292, 357, 64, 349, 351, 131, 135, 136, 15, 332, 67, 141, 
291, 294, 325, 330, 331, 334, 56, 293, 328, 329, 61, 333, 350, 
353, 356, 66, 137, 69, 375, 384, 386, 376, 286, 287, 285, 290, 
288, 289, 385, 377
306, 419, 417, 420, 418, 405, 401, 410, 404, 352, 326, 327, 354, 355, 
55, 292, 357, 64, 349, 351, 131, 135, 136, 15, 332, 67, 141, 
291, 294, 325, 330, 331, 334, 56, 293, 328, 329, 61, 333, 350, 
353, 356, 66, 137, 69, 375, 384, 386, 376, 286, 287, 285, 290, 
288, 289, 385, 377
307, 418, 420, 422, 404, 425, 410, 417, 401, 291, 55, 292, 294, 325, 
326, 327, 330, 54, 126, 316, 317, 118, 285, 290, 119, 286, 287, 
352, 354, 355, 357, 384, 386, 288, 289, 56, 293, 328, 329, 353, 
356, 385, 120, 59, 318, 60, 331, 334, 322, 15, 332, 349, 351, 
61, 333, 350, 63
308, 422, 404, 425, 418, 410, 420, 417, 401, 291, 55, 292, 294, 325, 
326, 327, 330, 54, 126, 316, 317, 118, 285, 290, 119, 286, 287, 
352, 354, 355, 357, 384, 386, 288, 289, 56, 293, 328, 329, 353, 
356, 385, 120, 59, 318, 60, 331, 334, 322, 15, 332, 349, 351, 
61, 333, 350, 63
** ... 20 like lines cut
*Element, type=U11,elset=AllEls
313, 423, 421, 424, 50, 281, 284, 112, 118, 285, 290, 119, 111, 115, 
117, 124, 13, 282, 286, 287, 51, 283, 288, 289, 53, 120, 113, 
121, 125, 54, 126, 129, 291, 294, 55, 292, 56, 293, 59, 127

314, 423, 421, 424, 50, 281, 284, 112, 118, 285, 290, 119, 111, 115, 
117, 124, 13, 282, 286, 287, 51, 283, 288, 289, 53, 120, 113, 
121, 125, 54, 126, 129, 291, 294, 55, 292, 56, 293, 59, 127

315, 413, 407, 415, 375, 384, 386, 376, 70, 387, 389, 381, 67, 355, 
357, 141, 140, 143, 374, 379, 380, 383, 55, 292, 286, 287, 13, 
282, 56, 356, 288, 385, 69, 377, 51, 388, 72, 142, 378, 382

316, 413, 407, 415, 375, 384, 386, 376, 70, 387, 389, 381, 67, 355, 
357, 141, 140, 143, 374, 379, 380, 383, 55, 292, 286, 287, 13, 
282, 56, 356, 288, 385, 69, 377, 51, 388, 72, 142, 378, 382

*Element, type=U12,elset=AllEls
317, 423, 421, 412, 403, 424, 409, 50, 281, 284, 112, 118, 285, 290, 
119, 111, 115, 117, 124, 13, 282, 286, 287, 51, 283, 288, 289, 
53, 120, 113, 121, 125, 54, 126, 129, 291, 294, 55, 292, 56, 
293, 59, 127
318, 423, 421, 412, 403, 424, 409, 50, 281, 284, 112, 118, 285, 290, 
119, 111, 115, 117, 124, 13, 282, 286, 287, 51, 283, 288, 289, 
53, 120, 113, 121, 125, 54, 126, 129, 291, 294, 55, 292, 56, 
293, 59, 127
319, 407, 415, 413, 406, 402, 411, 375, 384, 386, 376, 70, 387, 389, 
381, 67, 355, 357, 141, 140, 143, 374, 379, 380, 383, 55, 292, 
286, 287, 13, 282, 56, 356, 288, 385, 69, 377, 51, 388, 72, 
142, 378, 382
320, 413, 407, 415, 406, 402, 411, 375, 384, 386, 376, 70, 387, 389, 
381, 67, 355, 357, 141, 140, 143, 374, 379, 380, 383, 55, 292, 
286, 287, 13, 282, 56, 356, 288, 385, 69, 377, 51, 388, 72, 
142, 378, 382
*Element, type=U13,elset=AllEls
321, 423, 421, 424, 422, 50, 281, 284, 112, 118, 285, 290, 119, 111, 
115, 117, 124, 13, 282, 286, 287, 51, 283, 288, 289, 53, 120, 
113, 121, 125, 54, 126, 129, 291, 294, 55, 292, 56, 293, 59, 
127
322, 423, 421, 424, 422, 50, 281, 284, 112, 118, 285, 290, 119, 111, 
115, 117, 124, 13, 282, 286, 287, 51, 283, 288, 289, 53, 120, 
113, 121, 125, 54, 126, 129, 291, 294, 55, 292, 56, 293, 59, 
127
323, 405, 413, 407, 415, 375, 384, 386, 376, 70, 387, 389, 381, 67, 
355, 357, 141, 140, 143, 374, 379, 380, 383, 55, 292, 286, 287, 
13, 282, 56, 356, 288, 385, 69, 377, 51, 388, 72, 142, 378, 
382
324, 405, 413, 407, 415, 375, 384, 386, 376, 70, 387, 389, 381, 67, 
355, 357, 141, 140, 143, 374, 379, 380, 383, 55, 292, 286, 287, 
13, 282, 56, 356, 288, 385, 69, 377, 51, 388, 72, 142, 378, 
382
*Element, type=U14,elset=AllEls
325, 421, 424, 423, 412, 403, 409, 422, 404, 50, 281, 284, 112, 118, 
285, 290, 119, 111, 115, 117, 124, 13, 282, 286, 287, 51, 283, 
288, 289, 53, 120, 113, 121, 125, 54, 126, 129, 291, 294, 55, 
292, 56, 293, 59, 127
326, 423, 421, 424, 412, 403, 409, 422, 404, 50, 281, 284, 112, 118, 
285, 290, 119, 111, 115, 117, 124, 13, 282, 286, 287, 51, 283, 
288, 289, 53, 120, 113, 121, 125, 54, 126, 129, 291, 294, 55, 
292, 56, 293, 59, 127
327, 413, 407, 405, 406, 402, 401, 415, 411, 375, 384, 386, 376, 70, 
387, 389, 381, 67, 355, 357, 141, 140, 143, 374, 379, 380, 383, 
55, 292, 286, 287, 13, 282, 56, 356, 288, 385, 69, 377, 51, 
388, 72, 142, 378, 382
328, 405, 413, 407, 406, 402, 401, 415, 411, 375, 384, 386, 376, 70, 
387, 389, 381, 67, 355, 357, 141, 140, 143, 374, 379, 380, 383, 
55, 292, 286, 287, 13, 282, 56, 356, 288, 385, 69, 377, 51, 
388, 72, 142, 378, 382
*Element, type=U15,elset=AllEls
329, 422, 425, 54, 291, 294, 126, 316, 325, 330, 317, 117, 118, 119, 
124, 125, 129, 285, 290, 315, 320, 286, 287, 55, 292, 326, 327, 
288, 289, 56, 293, 120, 59, 328, 329, 318, 121, 127, 319, 321, 
60, 322, 324, 331, 334, 15, 332, 61, 333, 63, 323
330, 422, 425, 54, 291, 294, 126, 316, 325, 330, 317, 117, 118, 119, 
124, 125, 129, 285, 290, 315, 320, 286, 287, 55, 292, 326, 327, 
288, 289, 56, 293, 120, 59, 328, 329, 318, 121, 127, 319, 321, 
60, 322, 324, 331, 334, 15, 332, 61, 333, 63, 323
331, 425, 418, 54, 291, 294, 126, 316, 325, 330, 317, 117, 118, 119, 
124, 125, 129, 285, 290, 315, 320, 286, 287, 55, 292, 326, 327, 
288, 289, 56, 293, 120, 59, 328, 329, 318, 121, 127, 319, 321, 
60, 322, 324, 331, 334, 15, 332, 61, 333, 63, 323
332, 425, 418, 54, 291, 294, 126, 316, 325, 330, 317, 117, 118, 119, 
124, 125, 129, 285, 290, 315, 320, 286, 287, 55, 292, 326, 327, 
288, 289, 56, 293, 120, 59, 328, 329, 318, 121, 127, 319, 321, 
60, 322, 324, 331, 334, 15, 332, 61, 333, 63, 323
333, 419, 417, 135, 352, 354, 136, 67, 355, 357, 141, 64, 349, 351, 
131, 130, 133, 134, 139, 140, 143, 15, 332, 326, 327, 55, 292, 
61, 350, 328, 353, 66, 137, 56, 356, 69, 132, 138, 142, 375, 
384, 386, 376, 374, 379, 286, 287, 288, 385, 377, 378
** ... 12 like lines cut
*Element, type=U16,elset=AllEls
337, 425, 54, 291, 294, 126, 316, 325, 330, 317, 117, 118, 119, 124, 
125, 129, 285, 290, 315, 320, 286, 287, 55, 292, 326, 327, 288, 
289, 56, 293, 120, 59, 328, 329, 318, 121, 127, 319, 321, 60, 
322, 324, 331, 334, 15, 332, 61, 333, 63, 323
338, 425, 54, 291, 294, 126, 316, 325, 330, 317, 117, 118, 119, 124, 
125, 129, 285, 290, 315, 320, 286, 287, 55, 292, 326, 327, 288, 
289, 56, 293, 120, 59, 328, 329, 318, 121, 127, 319, 321, 60, 
322, 324, 331, 334, 15, 332, 61, 333, 63, 323
339, 419, 135, 352, 354, 136, 67, 355, 357, 141, 64, 349, 351, 131, 
130, 133, 134, 139, 140, 143, 15, 332, 326, 327, 55, 292, 61, 
350, 328, 353, 66, 137, 56, 356, 69, 132, 138, 142, 375, 384, 
386, 376, 374, 379, 286, 287, 288, 385, 377, 378
340, 419, 135, 352, 354, 136, 67, 355, 357, 141, 64, 349, 351, 131, 
130, 133, 134, 139, 140, 143, 15, 332, 326, 327, 55, 292, 61, 
350, 328, 353, 66, 137, 56, 356, 69, 132, 138, 142, 375, 384, 
386, 376, 374, 379, 286, 287, 288, 385, 377, 378
*ELSET,ELSET=EltPAtch1,generate
1, 340, 1
*UEL PROPERTY, ELSET=EltPAtch1
**---E11---|---v12---|----c1---|---c2----|---c3----|----c4---|----c5---|---c6----|
    100000,     0.3,     1.0e6,    6.0e1,   80.000,   0.2500,   0.9000,    2.239,
**
**---Y0----|----ep0--|---Y1----|----ep1--|---Y2----|----ep2--|---Y3----|----ep3--|
  1157.000,    0.000,   0.0000,   0.0100,1207.5147,  0.00000,1224.9017,   0.0500,
**
**---Y4----|----ep4--|---Y5----|----ep5--|---Y6----|----ep6--|---Y7----|----ep7--|
1252.362103,   0.0800,1270.5188,   0.1000,  1426.00,   0.3000,   1538.0,   0.6000,
**-------------------------> PROPS(28) | JPROPS(1)
**---fGT---|---fxC---|---Gxc---|---fGc---|-CohType-|--FtgMnt-|-psudo3D-|-VirtualE|
     0.4,      0.5,     65.0,      0.5,        2,        1,        0,        4, 
**-----------------------------> JPROPS(8)
** --NPLY--|--FaiCrt-|CDDC_NE_D|---------|
       1,        3,        0,        0
*End Part
*Assembly, name=Assembly
*Instance, name=I1, part=Piece
*End Instance
*End Assembly
*MATERIAL,NAME=MAT
*Elastic
100000, 0.3
**
** Modification (3): Add an amplitude definition
**
*amplitude, name=AMP1
0.0, 1.0, 1.0e6, 1.0
**
** Modification (4): Add a *Temperature line
**
*Temperature, amplitude=AMP1
I1.AllNode, 0.0
*node file, frequency=1
U,RF,CF
*el file, frequency=1
SDV
*End Step
