*HEADING
*Part, name=Piece
*USER ELEMENT, NODES=36, TYPE=U1, COORDINATES=3, variables=1404, I PROPERTIES=8, PROPERTIES=28
1,2,3
*USER ELEMENT, NODES=27, TYPE=U2, COORDINATES=3, variables=1053, I PROPERTIES=8, PROPERTIES=28
1,2,3
*USER ELEMENT, NODES=51, TYPE=U3, COORDINATES=3, variables=1989, I PROPERTIES=8, PROPERTIES=28
1,2,3
*USER ELEMENT, NODES=46, TYPE=U4, COORDINATES=3, variables=1794, I PROPERTIES=8, PROPERTIES=28
1,2,3
*USER ELEMENT, NODES=48, TYPE=U5, COORDINATES=3, variables=1872, I PROPERTIES=8, PROPERTIES=28
1,2,3
*USER ELEMENT, NODES=64, TYPE=U6, COORDINATES=3, variables=2496, I PROPERTIES=8, PROPERTIES=28
1,2,3
*USER ELEMENT, NODES=56, TYPE=U7, COORDINATES=3, variables=2184, I PROPERTIES=8, PROPERTIES=28
1,2,3
*USER ELEMENT, NODES=60, TYPE=U8, COORDINATES=3, variables=2340, I PROPERTIES=8, PROPERTIES=28
1,2,3
*USER ELEMENT, NODES=42, TYPE=U9, COORDINATES=3, variables=1638, I PROPERTIES=8, PROPERTIES=28
1,2,3
*USER ELEMENT, NODES=45, TYPE=U10, COORDINATES=3, variables=1755, I PROPERTIES=8, PROPERTIES=28
1,2,3
*Node,nset=AllNode
1,	1.30256,	3.03286,	1.02226
2,	1.164,	3.03098,	5.28988
3,	1.29914,	0.34448,	1.03152
4,	1.18816,	0.34288,	5.30658
5,	2.39898,	3.367,	2.3529
6,	2.30792,	3.37016,	3.9837
7,	2.36376,	0.02406,	2.38782
8,	2.34832,	0.0253,	4.03056
9,	5.91387,	0.183582,	4.93961
10,	5.89985,	3.16665,	4.96743
11,	4.16892,	0.0089,	4.0032
12,	4.05972,	3.37822,	4.12278
13,	4.0543,	3.3803,	2.31406
14,	4.06622,	0.0052,	2.31336
15,	5.98479,	3.27848,	1.59366
16,	6.00896,	0.20105,	1.4954
17,	4.33672,	3.37382,	2.8918
18,	4.33688,	3.36696,	3.54252
19,	4.34448,	0.00634214,	2.83841
20,	4.36834,	0.0144865,	3.43876
** ... 1735 like lines cut
*Element, type=U1,elset=AllEls
1, 1, 298, 302, 301, 303, 304, 311, 310, 824, 829, 830, 833, 61, 
299, 305, 306, 65, 300, 307, 308, 64, 309, 828, 832, 66, 350, 
353, 315, 312, 316, 67, 313, 74, 314, 73, 352
2, 4, 317, 321, 320, 322, 323, 330, 329, 672, 670, 676, 673, 62, 
318, 324, 325, 659, 664, 83, 319, 326, 327, 82, 328, 70, 331, 
335, 334, 679, 677, 69, 332, 668, 89, 333, 88
3, 5, 336, 340, 339, 341, 342, 349, 348, 690, 695, 696, 699, 94, 
337, 343, 344, 97, 338, 345, 346, 78, 347, 694, 698, 66, 312, 
316, 315, 350, 353, 98, 351, 103, 352, 73, 314
4, 13, 354, 358, 357, 359, 360, 367, 366, 795, 797, 798, 800, 108, 
355, 361, 362, 111, 356, 363, 364, 95, 365, 796, 799, 99, 368, 
372, 371, 801, 803, 112, 369, 117, 370, 100, 802
5, 17, 373, 377, 376, 378, 379, 386, 385, 858, 860, 861, 863, 122, 
374, 380, 381, 125, 375, 382, 383, 109, 384, 859, 862, 113, 387, 
391, 390, 864, 866, 126, 388, 131, 389, 114, 865
6, 18, 392, 396, 395, 397, 398, 405, 404, 921, 923, 924, 926, 136, 
393, 399, 400, 138, 394, 401, 402, 123, 403, 922, 925, 127, 406, 
410, 409, 927, 929, 139, 407, 141, 408, 128, 928
7, 29, 468, 472, 471, 473, 474, 481, 480, 1057, 1058, 1059, 1060, 147, 
469, 475, 476, 1047, 1051, 195, 470, 477, 478, 194, 479, 156, 482, 
** ... 496 like lines cut
*Element, type=U2,elset=AllEls
173, 25, 411, 415, 414, 416, 417, 424, 423, 145, 412, 418, 419, 149, 
413, 420, 421, 148, 422, 150, 425, 429, 428, 151, 426, 158, 427, 
157
174, 1063, 1064, 1071, 1070, 37, 1072, 1076, 1075, 150, 425, 429, 428, 151, 
426, 1065, 1066, 159, 1073, 158, 427, 1067, 1068, 157, 1069, 163, 1074, 
162
175, 1161, 28, 1162, 1164, 1165, 1166, 1167, 1170, 178, 450, 456, 457, 179, 
1163, 1168, 1169, 181, 458, 182, 1171, 1174, 464, 183, 1172, 184, 1173, 
187
176, 1201, 1202, 1203, 1206, 1207, 40, 1208, 1210, 182, 1171, 1174, 464, 1192, 
1193, 183, 1172, 188, 1198, 184, 1173, 1204, 1205, 189, 1209, 187, 1194, 
191
*Element, type=U3,elset=AllEls
177, 26, 430, 434, 433, 435, 436, 443, 442, 1036, 1038, 1039, 1041, 1518, 
1519, 1521, 1522, 1523, 1526, 1726, 1728, 164, 431, 437, 438, 1527, 1528, 
1530, 1730, 167, 432, 439, 440, 146, 441, 1037, 1040, 152, 444, 448, 
447, 1042, 1044, 1725, 1727, 168, 445, 1729, 173, 446, 153, 1043
178, 1104, 27, 452, 1106, 1107, 454, 461, 1109, 164, 431, 437, 438, 1527, 
1528, 1530, 1569, 1570, 1573, 1574, 1575, 1577, 1730, 1751, 1753, 449, 453, 
455, 462, 451, 165, 459, 460, 1105, 1108, 167, 439, 168, 1110, 1112, 
445, 169, 466, 1729, 1750, 1752, 463, 467, 465, 170, 1111, 173
179, 1078, 1128, 1133, 1079, 38, 620, 1136, 1084, 152, 444, 448, 447, 1042, 
1044, 1077, 1082, 1083, 1086, 1731, 1725, 1732, 1727, 625, 626, 168, 445, 
1129, 1130, 174, 1134, 1733, 1729, 627, 173, 446, 1131, 1132, 153, 1080, 
177, 1135, 160, 1043, 1081, 1085, 624, 623, 633, 632, 621, 628
180, 1137, 1138, 1139, 1142, 1143, 39, 1144, 1146, 168, 1110, 1112, 445, 1129, 
1130, 169, 466, 174, 1134, 1733, 1729, 1754, 1750, 627, 1661, 1755, 1752, 
1662, 463, 467, 1191, 1196, 1197, 1200, 170, 1111, 1140, 1141, 175, 1145, 
465, 1195, 1199, 173, 1131, 177, 1660, 621, 1666, 628, 1658, 1663
181, 1726, 1519, 26, 435, 1728, 1523, 430, 436, 293, 1717, 1725, 648, 1720, 
1727, 248, 1524, 152, 444, 1518, 1521, 1522, 1526, 1520, 1525, 434, 433, 
443, 442, 1036, 1038, 1039, 1041, 448, 447, 1042, 1044, 295, 1723, 1730, 
1729, 254, 1528, 164, 437, 168, 1527, 1530, 1529, 431, 438, 445
** ... 12 like lines cut
*Element, type=U4,elset=AllEls
185, 27, 449, 453, 452, 454, 455, 462, 461, 1104, 1106, 1107, 1109, 1569, 
1570, 1573, 1574, 1575, 1577, 1751, 1753, 178, 450, 456, 457, 181, 451, 
458, 459, 165, 460, 1105, 1108, 169, 463, 467, 466, 1110, 1112, 1750, 
1752, 182, 464, 187, 465, 170, 1111
186, 38, 620, 624, 623, 625, 626, 633, 632, 1077, 1078, 1079, 1082, 1083, 
1084, 1086, 1128, 1133, 1136, 1731, 1732, 174, 621, 627, 628, 1129, 1130, 
1134, 1733, 281, 622, 629, 630, 280, 631, 282, 641, 634, 649, 638, 
637, 283, 635, 654, 287, 636, 286
187, 1036, 26, 433, 1038, 1039, 435, 442, 1041, 145, 412, 418, 419, 430, 
434, 436, 443, 1518, 1519, 1521, 1522, 1523, 1526, 1726, 1728, 432, 146, 
440, 441, 1037, 1040, 149, 420, 151, 1042, 1044, 426, 152, 447, 444, 
448, 1725, 1727, 446, 153, 1043, 158
188, 1077, 1078, 1079, 1082, 1083, 38, 1084, 1086, 151, 1042, 1044, 426, 1065, 
1066, 152, 447, 159, 1073, 444, 448, 1128, 1133, 620, 1136, 1731, 1725, 
1732, 1727, 625, 626, 153, 1043, 1080, 1081, 160, 1085, 446, 1132, 1135, 
158, 1067, 163, 624, 623, 633, 632
189, 1138, 1191, 1196, 1139, 39, 1197, 1200, 1144, 169, 463, 467, 466, 1110, 
1112, 1137, 1142, 1143, 1146, 1754, 1750, 1755, 1752, 1661, 1662, 182, 464, 
1192, 1193, 188, 1198, 187, 465, 1194, 1195, 170, 1140, 191, 1199, 175, 
1111, 1141, 1145, 1658, 1660, 1663, 1666
** ... 12 like lines cut
*Element, type=U5,elset=AllEls
193, 30, 487, 491, 490, 492, 493, 500, 499, 1048, 1045, 1046, 1052, 1049, 
1050, 1125, 1126, 1226, 1228, 166, 488, 494, 495, 1115, 1119, 208, 489, 
496, 497, 192, 498, 1225, 1227, 154, 501, 505, 504, 1056, 1053, 1054, 
1127, 1230, 172, 502, 1123, 212, 503, 196, 1229
194, 31, 506, 510, 509, 511, 512, 519, 518, 1116, 1113, 1114, 1120, 1117, 
1118, 1188, 1189, 1284, 1286, 180, 507, 513, 514, 1177, 1182, 218, 508, 
515, 516, 206, 517, 1283, 1285, 171, 520, 524, 523, 1124, 1121, 1122, 
1190, 1288, 186, 521, 1186, 222, 522, 209, 1287
195, 34, 544, 548, 547, 549, 550, 557, 556, 1234, 1231, 1232, 1238, 1235, 
1236, 1301, 1302, 1387, 1389, 207, 545, 551, 552, 1291, 1295, 236, 546, 
553, 554, 226, 555, 1386, 1388, 197, 558, 562, 561, 1242, 1239, 1240, 
1303, 1391, 211, 559, 1299, 238, 560, 229, 1390
196, 35, 563, 567, 566, 568, 569, 576, 575, 1292, 1289, 1290, 1296, 1293, 
1294, 1355, 1356, 1435, 1437, 217, 564, 570, 571, 1344, 1349, 242, 565, 
572, 573, 235, 574, 1434, 1436, 210, 577, 581, 580, 1300, 1297, 1298, 
1357, 1439, 221, 578, 1353, 244, 579, 237, 1438
197, 65, 659, 672, 671, 307, 664, 676, 675, 302, 299, 300, 311, 306, 
308, 660, 665, 682, 686, 658, 62, 663, 324, 317, 323, 4, 670, 
322, 673, 63, 674, 680, 683, 316, 313, 74, 314, 669, 668, 679, 
678, 689, 667, 69, 331, 70, 677, 71, 687
** ... 2252 like lines cut
*Element, type=U6,elset=AllEls
761, 74, 668, 679, 678, 693, 704, 715, 714, 311, 306, 307, 308, 316, 
313, 314, 665, 664, 669, 676, 675, 686, 689, 695, 692, 694, 705, 
723, 663, 324, 667, 69, 323, 331, 702, 703, 710, 322, 673, 70, 
677, 674, 71, 711, 712, 713, 683, 687, 720, 699, 697, 79, 698, 
709, 708, 719, 718, 726, 707, 76, 716, 8, 717, 77, 724
762, 73, 314, 689, 688, 347, 694, 723, 722, 352, 823, 309, 828, 855, 
685, 310, 311, 308, 315, 316, 348, 349, 346, 353, 686, 695, 821, 
829, 306, 307, 313, 74, 675, 678, 692, 693, 714, 674, 683, 71, 
687, 684, 72, 713, 720, 721, 820, 822, 854, 78, 338, 819, 725, 
339, 340, 699, 698, 726, 697, 79, 718, 77, 724, 7, 818
763, 69, 667, 736, 332, 703, 702, 774, 761, 323, 324, 325, 330, 331, 
335, 665, 663, 664, 669, 668, 676, 679, 705, 704, 710, 715, 733, 
766, 661, 662, 666, 68, 700, 701, 730, 734, 771, 731, 732, 84, 
735, 326, 89, 772, 773, 762, 327, 333, 763, 709, 707, 76, 708, 
716, 719, 767, 770, 777, 706, 6, 775, 90, 776, 93, 768
764, 89, 735, 750, 749, 762, 773, 783, 782, 330, 325, 326, 327, 335, 
332, 333, 733, 732, 736, 746, 745, 757, 760, 766, 761, 763, 774, 
791, 730, 731, 734, 84, 741, 747, 771, 772, 778, 742, 743, 85, 
748, 744, 86, 779, 780, 781, 754, 758, 788, 770, 767, 93, 768, 
777, 776, 787, 786, 794, 775, 90, 784, 12, 785, 91, 792
** ... 2020 like lines cut
*Element, type=U7,elset=AllEls
1169, 164, 1104, 1106, 431, 437, 1107, 1109, 438, 430, 434, 436, 443, 1522, 
1523, 1526, 1527, 1528, 1530, 1569, 1570, 1573, 1728, 1730, 1751, 27, 452, 
454, 461, 1574, 1575, 1577, 1753, 165, 1105, 460, 1108, 167, 439, 432, 
440, 444, 168, 445, 448, 1110, 1112, 1727, 1729, 1750, 169, 466, 1752, 
170, 1111, 173, 446
1170, 169, 463, 467, 466, 1138, 1191, 1196, 1139, 454, 455, 462, 461, 1107, 
1109, 1110, 1112, 1137, 1142, 1750, 1751, 1752, 1753, 1754, 1755, 456, 457, 
182, 464, 1192, 1193, 458, 459, 187, 465, 460, 170, 1194, 1195, 1140, 
1108, 1111, 1141, 1143, 39, 1144, 1146, 1197, 1200, 1661, 1662, 188, 1198, 
191, 1199, 175, 1145
1171, 174, 1143, 1660, 621, 627, 1661, 1666, 628, 620, 624, 626, 633, 1128, 
1129, 1130, 1133, 1134, 1136, 1137, 1142, 1146, 1732, 1733, 1754, 1138, 1139, 
39, 1144, 1658, 1662, 1663, 1755, 279, 1659, 1664, 1665, 281, 629, 622, 
630, 283, 654, 1667, 1738, 634, 635, 638, 1670, 649, 284, 1668, 1742, 
285, 1669, 287, 636
1172, 430, 164, 431, 434, 436, 437, 438, 443, 26, 433, 435, 442, 1518, 
1519, 1521, 1522, 1523, 1526, 1527, 1528, 1530, 1726, 1728, 1730, 1104, 1106, 
1107, 1109, 1569, 1570, 1573, 1751, 167, 432, 439, 440, 1105, 1108, 146, 
441, 152, 444, 448, 447, 168, 445, 1725, 1727, 1729, 1110, 1112, 1750, 
173, 446, 1111, 153
** ... 100 like lines cut
*Element, type=U8,elset=AllEls
1193, 152, 444, 448, 447, 1078, 1128, 1133, 1079, 435, 436, 443, 442, 1039, 
1041, 1042, 1044, 1077, 1082, 1725, 1726, 1727, 1728, 1731, 1732, 437, 438, 
168, 445, 1129, 1130, 1729, 1730, 1733, 439, 440, 173, 446, 441, 153, 
1131, 1132, 1080, 1040, 1043, 1081, 1083, 38, 1084, 1086, 620, 1136, 625, 
626, 174, 1134, 627, 177, 1135, 160, 1085
1194, 435, 436, 443, 442, 152, 444, 448, 447, 26, 430, 434, 433, 1036, 
1038, 1039, 1041, 1042, 1044, 1726, 1519, 1728, 1523, 1725, 1727, 164, 431, 
437, 438, 168, 445, 1730, 1528, 1729, 167, 432, 439, 440, 146, 441, 
173, 446, 153, 1037, 1040, 1043, 1078, 1128, 1133, 1079, 1077, 1082, 1731, 
1732, 1129, 1130, 1733, 1131, 1132, 1080, 1081
1195, 836, 892, 891, 837, 841, 896, 895, 105, 99, 368, 372, 371, 835, 
887, 801, 803, 834, 839, 100, 802, 838, 840, 15, 843, 842, 370, 
893, 112, 369, 888, 889, 117, 890, 118, 894, 121, 886, 814, 918, 
844, 879, 911, 920, 850, 915, 817, 849, 853, 1492, 1490, 1512, 1510, 
1515, 1513, 1491, 1511, 1514, 1489, 1487, 1488
1196, 837, 891, 918, 844, 105, 895, 920, 850, 100, 370, 886, 814, 803, 
371, 802, 839, 836, 838, 843, 841, 842, 817, 849, 853, 372, 892, 
896, 369, 117, 889, 890, 894, 121, 879, 911, 915, 116, 885, 910, 
917, 101, 845, 120, 919, 16, 815, 846, 851, 1489, 1487, 1492, 1490, 
1512, 1510, 1488, 1491, 1511, 1486, 1484, 1485
** ... 40 like lines cut
*Element, type=U9,elset=AllEls
1205, 740, 737, 10, 738, 746, 741, 742, 743, 83, 728, 739, 326, 732, 
745, 80, 731, 81, 744, 1019, 1021, 1022, 1024, 1430, 1431, 1432, 1433, 
1020, 1023, 1405, 1406, 89, 735, 750, 749, 84, 747, 85, 748, 86, 
990, 992, 991
1206, 752, 753, 751, 9, 756, 757, 754, 755, 82, 319, 328, 327, 83, 
739, 326, 745, 81, 744, 1020, 1028, 1023, 1031, 1025, 1029, 1401, 1402, 
1403, 1404, 1405, 1406, 88, 333, 760, 759, 758, 87, 89, 749, 86, 
991, 1002, 1000
1207, 834, 835, 836, 839, 840, 15, 841, 843, 98, 801, 803, 351, 825, 
826, 99, 371, 104, 831, 368, 372, 887, 892, 893, 896, 100, 802, 
837, 838, 105, 842, 370, 891, 895, 103, 827, 107, 1512, 1510, 1515, 
1513, 1492, 1490
1208, 849, 844, 845, 846, 853, 850, 16, 851, 103, 802, 817, 816, 827, 
838, 848, 100, 814, 837, 101, 815, 102, 847, 107, 842, 852, 105, 
106, 370, 886, 891, 918, 885, 917, 895, 920, 919, 1486, 1484, 1489, 
1487, 1492, 1490
1209, 1401, 1402, 1029, 9, 1403, 1404, 1031, 751, 227, 527, 536, 535, 228, 
1393, 534, 1396, 143, 1030, 1028, 754, 755, 1025, 1027, 1026, 752, 753, 
756, 757, 230, 541, 1406, 1405, 1023, 81, 231, 1399, 144, 1012, 1020, 
744, 739, 745
** ... 12 like lines cut
*Element, type=U10,elset=AllEls
1213, 835, 887, 892, 836, 15, 893, 896, 841, 99, 368, 372, 371, 801, 
803, 834, 839, 840, 843, 112, 369, 888, 889, 118, 894, 117, 370, 
890, 891, 100, 837, 121, 895, 105, 802, 838, 842, 1512, 1510, 1515, 
1513, 1511, 1514, 1492, 1490, 1491
1214, 844, 918, 917, 845, 850, 920, 919, 16, 100, 370, 886, 814, 837, 
891, 802, 817, 838, 849, 101, 815, 846, 842, 105, 853, 851, 885, 
895, 117, 879, 890, 911, 116, 910, 121, 915, 120, 1486, 1484, 1489, 
1487, 1492, 1490, 1485, 1488, 1491
1215, 1019, 742, 743, 1021, 1022, 10, 738, 1024, 139, 990, 992, 407, 1010, 
1011, 85, 748, 142, 1016, 740, 737, 746, 741, 750, 747, 739, 81, 
745, 744, 749, 86, 991, 1020, 1023, 141, 1012, 144, 1431, 1425, 1433, 
1428, 1430, 1432, 1405, 1406, 1399
1216, 1028, 754, 755, 1025, 1031, 751, 9, 1029, 141, 991, 1002, 1001, 1012, 
1020, 1027, 86, 758, 744, 87, 1000, 140, 1026, 144, 1023, 1030, 81, 
143, 753, 739, 757, 745, 752, 756, 760, 749, 759, 1402, 1393, 1404, 
1396, 1401, 1403, 1406, 1399, 1405
*ELSET,ELSET=EltPAtch1,generate
1, 1216, 1
*UEL PROPERTY, ELSET=EltPAtch1
**---E11---|---v12---|----c1---|---c2----|---c3----|----c4---|----c5---|---c6----|
    100000,     0.3,     1.0e6,    6.0e1,   80.000,   0.2500,   0.9000,    2.239,
**
**---Y0----|----ep0--|---Y1----|----ep1--|---Y2----|----ep2--|---Y3----|----ep3--|
  1157.000,    0.000,   0.0000,   0.0100,1207.5147,  0.00000,1224.9017,   0.0500,
**
**---Y4----|----ep4--|---Y5----|----ep5--|---Y6----|----ep6--|---Y7----|----ep7--|
1252.362103,   0.0800,1270.5188,   0.1000,  1426.00,   0.3000,   1538.0,   0.6000,
**-------------------------> PROPS(28) | JPROPS(1)
**---fGT---|---fxC---|---Gxc---|---fGc---|-CohType-|--FtgMnt-|-psudo3D-|-VirtualE|
     0.4,      0.5,     65.0,      0.5,        2,        1,        0,        4, 
**-----------------------------> JPROPS(8)
** --NPLY--|--FaiCrt-|CDDC_NE_D|---------|
       1,        3,        0,        0
*End Part
*Assembly, name=Assembly
*Instance, name=I1, part=Piece
*End Instance
*End Assembly
*MATERIAL,NAME=MAT
*Elastic
100000, 0.3
**
** Modification (3): Add an amplitude definition
**
*amplitude, name=AMP1
0.0, 1.0, 1.0e6, 1.0
**
** Modification (4): Add a *Temperature line
**
*Temperature, amplitude=AMP1
I1.AllNode, 0.0
*node file, frequency=1
U,RF,CF
*el file, frequency=1
SDV
*End Step
